version 3
run MixedTCP6UDP2-0-20241031-18:01:24-14592
attr configname MixedTCP6UDP2
attr datetime 20241031-18:01:24
attr datetimef 20241031-180124
attr experiment MixedTCP6UDP2
attr inifile omnetpp.ini
attr iterationvars ""
attr iterationvarsd ""
attr iterationvarsf ""
attr measurement ""
attr network MixedWLAN
attr processid 14592
attr repetition 0
attr replication #0
attr resultdir results
attr runnumber 0
attr seedset 0
config image-path ../../inet4.5/images
config **.numHostsTCP 7
config **.numHostsUDP 3
config network MixedWLAN
config sim-time-limit 10s
config **.mac.**.vector-recording false
config **.mac.**.bin-recording false
config **.tcp.**.vector-recording false
config **.tcp.**.bin-recording false
config **.radio.**.vector-recording false
config **.radio.**.bin-recording false
config **.constraintAreaMinX 0m
config **.constraintAreaMinY 0m
config **.constraintAreaMinZ 0m
config **.constraintAreaMaxX 50m
config **.constraintAreaMaxY 50m
config **.constraintAreaMaxZ 0m
config **.ap.wlan[*].address "\"10:00:00:00:00:00\""
config **.*host*.**.mgmt.accessPointAddress "\"10:00:00:00:00:00\""
config **.numApps 1
config **.udphost[0].app[*].typename UdpEchoApp
config **.udphost[0].app[*].localPort 3088
config **.udphost[*].app[*].typename UdpBasicApp
config **.udphost[*].app[*].destAddresses "\"udphost[0]\""
config **.udphost[*].app[*].messageLength 1500B
config **.udphost[*].app[*].sendInterval "40ms + uniform(-5ms, 5ms)"
config **.udphost[*].app[*].destPort 3088
config **.udphost[*].app[*].startTime 0s
config **.udphost[*].app[*].stopTime -1s
config **.tcphost[0].numApps 1
config **.tcphost[0].app[*].typename TcpGenericServerApp
config **.tcphost[0].app[0].localPort 1000
config **.tcphost[0].app[0].active true
config **.tcphost[*].numApps 1
config **.tcphost[*].app[*].typename TcpBasicClientApp
config **.tcphost[*].app[0].active true
config **.tcphost[*].app[0].connectAddress "\"tcphost[0]\""
config **.tcphost[*].app[0].connectPort 1000
config **.tcphost[*].app[0].startTime 0s
config **.tcphost[*].app[0].stopTime -1s
config **.tcphost[*].app[0].thinkTime 0s
config **.tcphost[*].app[0].idleInterval "40ms + uniform(-5ms, 5ms)"
config **.tcphost[*].app[0].reconnectInterval 0s
config **.tcphost[*].app[0].numRequestsPerSession 1
config **.tcphost[*].app[0].requestLength 1500B
config **.tcphost[*].app[0].replyLength 1500B
config **.wlan[*].bitrate 433.3Mbps
config **.wlan[*].mac.dcf.channelAccess.pendingQueue.packetCapacity 40
config **.wlan[*].mac.dcf.channelAccess.cwMin 20
config **.bandName "\"5 GHz (20 MHz)\""
config **.opMode "\"ac\""
config **.wlan[*].radio.antenna.numAntennas 8
config **.wlan[*].radio.transmitter.power 10mW
config **.wlan[*].radio.transmitter.headerLength 192b
config **.wlan[*].radio.transmitter.centerFrequency 5GHz
config **.wlan[*].radio.receiver.sensitivity -85dBm
config **.wlan[*].radio.receiver.snirThreshold 4dB

vector 0 MixedWLAN.udphost[0].udp passedUpPk:vector(count) ETV
attr interpolationmode none
attr recordingmode vector(count)
attr source packetSentToUpper
attr title "packets passed up, count"
vector 1 MixedWLAN.udphost[0].udp droppedPkWrongPort:vector(count) ETV
attr interpolationmode none
attr recordingmode vector(count)
attr source packetDropReasonIsNoPortFound(packetDropped)
attr title "packets dropped (wrong port), count"
vector 2 MixedWLAN.udphost[0].udp droppedPkBadChecksum:vector(count) ETV
attr interpolationmode none
attr recordingmode vector(count)
attr source packetDropReasonIsIncorrectlyReceived(packetDropped)
attr title "packets dropped (checksum error), count"
vector 3 MixedWLAN.udphost[1].udp passedUpPk:vector(count) ETV
attr interpolationmode none
attr recordingmode vector(count)
attr source packetSentToUpper
attr title "packets passed up, count"
vector 4 MixedWLAN.udphost[1].udp droppedPkWrongPort:vector(count) ETV
attr interpolationmode none
attr recordingmode vector(count)
attr source packetDropReasonIsNoPortFound(packetDropped)
attr title "packets dropped (wrong port), count"
vector 5 MixedWLAN.udphost[1].udp droppedPkBadChecksum:vector(count) ETV
attr interpolationmode none
attr recordingmode vector(count)
attr source packetDropReasonIsIncorrectlyReceived(packetDropped)
attr title "packets dropped (checksum error), count"
vector 6 MixedWLAN.udphost[2].udp passedUpPk:vector(count) ETV
attr interpolationmode none
attr recordingmode vector(count)
attr source packetSentToUpper
attr title "packets passed up, count"
vector 7 MixedWLAN.udphost[2].udp droppedPkWrongPort:vector(count) ETV
attr interpolationmode none
attr recordingmode vector(count)
attr source packetDropReasonIsNoPortFound(packetDropped)
attr title "packets dropped (wrong port), count"
vector 8 MixedWLAN.udphost[2].udp droppedPkBadChecksum:vector(count) ETV
attr interpolationmode none
attr recordingmode vector(count)
attr source packetDropReasonIsIncorrectlyReceived(packetDropped)
attr title "packets dropped (checksum error), count"
vector 9 MixedWLAN.tcphost[0].udp passedUpPk:vector(count) ETV
attr interpolationmode none
attr recordingmode vector(count)
attr source packetSentToUpper
attr title "packets passed up, count"
vector 10 MixedWLAN.tcphost[0].udp droppedPkWrongPort:vector(count) ETV
attr interpolationmode none
attr recordingmode vector(count)
attr source packetDropReasonIsNoPortFound(packetDropped)
attr title "packets dropped (wrong port), count"
vector 11 MixedWLAN.tcphost[0].udp droppedPkBadChecksum:vector(count) ETV
attr interpolationmode none
attr recordingmode vector(count)
attr source packetDropReasonIsIncorrectlyReceived(packetDropped)
attr title "packets dropped (checksum error), count"
vector 12 MixedWLAN.tcphost[1].udp passedUpPk:vector(count) ETV
attr interpolationmode none
attr recordingmode vector(count)
attr source packetSentToUpper
attr title "packets passed up, count"
vector 13 MixedWLAN.tcphost[1].udp droppedPkWrongPort:vector(count) ETV
attr interpolationmode none
attr recordingmode vector(count)
attr source packetDropReasonIsNoPortFound(packetDropped)
attr title "packets dropped (wrong port), count"
vector 14 MixedWLAN.tcphost[1].udp droppedPkBadChecksum:vector(count) ETV
attr interpolationmode none
attr recordingmode vector(count)
attr source packetDropReasonIsIncorrectlyReceived(packetDropped)
attr title "packets dropped (checksum error), count"
vector 15 MixedWLAN.tcphost[1].app[0] numActiveSessions:vector ETV
attr autoWarmupFilter false
attr interpolationmode sample-hold
attr recordingmode vector
attr source warmup(sum(connect))
attr title "number of active sessions"
vector 16 MixedWLAN.tcphost[2].udp passedUpPk:vector(count) ETV
attr interpolationmode none
attr recordingmode vector(count)
attr source packetSentToUpper
attr title "packets passed up, count"
vector 17 MixedWLAN.tcphost[2].udp droppedPkWrongPort:vector(count) ETV
attr interpolationmode none
attr recordingmode vector(count)
attr source packetDropReasonIsNoPortFound(packetDropped)
attr title "packets dropped (wrong port), count"
vector 18 MixedWLAN.tcphost[2].udp droppedPkBadChecksum:vector(count) ETV
attr interpolationmode none
attr recordingmode vector(count)
attr source packetDropReasonIsIncorrectlyReceived(packetDropped)
attr title "packets dropped (checksum error), count"
vector 19 MixedWLAN.tcphost[2].app[0] numActiveSessions:vector ETV
attr autoWarmupFilter false
attr interpolationmode sample-hold
attr recordingmode vector
attr source warmup(sum(connect))
attr title "number of active sessions"
vector 20 MixedWLAN.tcphost[3].udp passedUpPk:vector(count) ETV
attr interpolationmode none
attr recordingmode vector(count)
attr source packetSentToUpper
attr title "packets passed up, count"
vector 21 MixedWLAN.tcphost[3].udp droppedPkWrongPort:vector(count) ETV
attr interpolationmode none
attr recordingmode vector(count)
attr source packetDropReasonIsNoPortFound(packetDropped)
attr title "packets dropped (wrong port), count"
vector 22 MixedWLAN.tcphost[3].udp droppedPkBadChecksum:vector(count) ETV
attr interpolationmode none
attr recordingmode vector(count)
attr source packetDropReasonIsIncorrectlyReceived(packetDropped)
attr title "packets dropped (checksum error), count"
vector 23 MixedWLAN.tcphost[3].app[0] numActiveSessions:vector ETV
attr autoWarmupFilter false
attr interpolationmode sample-hold
attr recordingmode vector
attr source warmup(sum(connect))
attr title "number of active sessions"
vector 24 MixedWLAN.tcphost[4].udp passedUpPk:vector(count) ETV
attr interpolationmode none
attr recordingmode vector(count)
attr source packetSentToUpper
attr title "packets passed up, count"
vector 25 MixedWLAN.tcphost[4].udp droppedPkWrongPort:vector(count) ETV
attr interpolationmode none
attr recordingmode vector(count)
attr source packetDropReasonIsNoPortFound(packetDropped)
attr title "packets dropped (wrong port), count"
vector 26 MixedWLAN.tcphost[4].udp droppedPkBadChecksum:vector(count) ETV
attr interpolationmode none
attr recordingmode vector(count)
attr source packetDropReasonIsIncorrectlyReceived(packetDropped)
attr title "packets dropped (checksum error), count"
vector 27 MixedWLAN.tcphost[4].app[0] numActiveSessions:vector ETV
attr autoWarmupFilter false
attr interpolationmode sample-hold
attr recordingmode vector
attr source warmup(sum(connect))
attr title "number of active sessions"
vector 28 MixedWLAN.tcphost[5].udp passedUpPk:vector(count) ETV
attr interpolationmode none
attr recordingmode vector(count)
attr source packetSentToUpper
attr title "packets passed up, count"
vector 29 MixedWLAN.tcphost[5].udp droppedPkWrongPort:vector(count) ETV
attr interpolationmode none
attr recordingmode vector(count)
attr source packetDropReasonIsNoPortFound(packetDropped)
attr title "packets dropped (wrong port), count"
vector 30 MixedWLAN.tcphost[5].udp droppedPkBadChecksum:vector(count) ETV
attr interpolationmode none
attr recordingmode vector(count)
attr source packetDropReasonIsIncorrectlyReceived(packetDropped)
attr title "packets dropped (checksum error), count"
vector 31 MixedWLAN.tcphost[5].app[0] numActiveSessions:vector ETV
attr autoWarmupFilter false
attr interpolationmode sample-hold
attr recordingmode vector
attr source warmup(sum(connect))
attr title "number of active sessions"
vector 32 MixedWLAN.tcphost[6].udp passedUpPk:vector(count) ETV
attr interpolationmode none
attr recordingmode vector(count)
attr source packetSentToUpper
attr title "packets passed up, count"
vector 33 MixedWLAN.tcphost[6].udp droppedPkWrongPort:vector(count) ETV
attr interpolationmode none
attr recordingmode vector(count)
attr source packetDropReasonIsNoPortFound(packetDropped)
attr title "packets dropped (wrong port), count"
vector 34 MixedWLAN.tcphost[6].udp droppedPkBadChecksum:vector(count) ETV
attr interpolationmode none
attr recordingmode vector(count)
attr source packetDropReasonIsIncorrectlyReceived(packetDropped)
attr title "packets dropped (checksum error), count"
vector 35 MixedWLAN.tcphost[6].app[0] numActiveSessions:vector ETV
attr autoWarmupFilter false
attr interpolationmode sample-hold
attr recordingmode vector
attr source warmup(sum(connect))
attr title "number of active sessions"
vector 36 MixedWLAN.udphost[1].app[0] packetSent:vector(packetBytes) ETV
attr interpolationmode none
attr recordingmode vector(packetBytes)
attr source packetSent
attr title "packets sent, packetBytes"
vector 37 MixedWLAN.udphost[2].app[0] packetSent:vector(packetBytes) ETV
attr interpolationmode none
attr recordingmode vector(packetBytes)
attr source packetSent
attr title "packets sent, packetBytes"
vector 38 MixedWLAN.udphost[1].udp packetSent:vector(packetBytes) ETV
attr interpolationmode none
attr recordingmode vector(packetBytes)
attr source packetSent
attr title "packets sent, packetBytes"
vector 39 MixedWLAN.udphost[2].udp packetSent:vector(packetBytes) ETV
attr interpolationmode none
attr recordingmode vector(packetBytes)
attr source packetSent
attr title "packets sent, packetBytes"
vector 40 MixedWLAN.udphost[1].ipv4.arp arpRequestSent:vector(packetBytes) ETV
attr recordingmode vector(packetBytes)
attr source arpRequestSent
attr title "ARP request sent, packetBytes"
vector 41 MixedWLAN.udphost[2].ipv4.arp arpRequestSent:vector(packetBytes) ETV
attr recordingmode vector(packetBytes)
attr source arpRequestSent
attr title "ARP request sent, packetBytes"
vector 42 MixedWLAN.tcphost[1].ipv4.arp arpRequestSent:vector(packetBytes) ETV
attr recordingmode vector(packetBytes)
attr source arpRequestSent
attr title "ARP request sent, packetBytes"
vector 43 MixedWLAN.tcphost[2].ipv4.arp arpRequestSent:vector(packetBytes) ETV
attr recordingmode vector(packetBytes)
attr source arpRequestSent
attr title "ARP request sent, packetBytes"
vector 44 MixedWLAN.tcphost[3].ipv4.arp arpRequestSent:vector(packetBytes) ETV
attr recordingmode vector(packetBytes)
attr source arpRequestSent
attr title "ARP request sent, packetBytes"
vector 45 MixedWLAN.tcphost[4].ipv4.arp arpRequestSent:vector(packetBytes) ETV
attr recordingmode vector(packetBytes)
attr source arpRequestSent
attr title "ARP request sent, packetBytes"
vector 46 MixedWLAN.tcphost[5].ipv4.arp arpRequestSent:vector(packetBytes) ETV
attr recordingmode vector(packetBytes)
attr source arpRequestSent
attr title "ARP request sent, packetBytes"
vector 47 MixedWLAN.tcphost[6].ipv4.arp arpRequestSent:vector(packetBytes) ETV
attr recordingmode vector(packetBytes)
attr source arpRequestSent
attr title "ARP request sent, packetBytes"
vector 48 MixedWLAN.udphost[0].ipv4.arp arpReplySent:vector(packetBytes) ETV
attr recordingmode vector(packetBytes)
attr source arpReplySent
attr title "ARP replies sent, packetBytes"
vector 49 MixedWLAN.tcphost[0].ipv4.arp arpReplySent:vector(packetBytes) ETV
attr recordingmode vector(packetBytes)
attr source arpReplySent
attr title "ARP replies sent, packetBytes"
vector 50 MixedWLAN.udphost[0].udp packetReceived:vector(packetBytes) ETV
attr interpolationmode none
attr recordingmode vector(packetBytes)
attr source packetReceived
attr title "packets received, packetBytes"
vector 51 MixedWLAN.udphost[0].app[0] echoedPk:vector(packetBytes) ETV
attr interpolationmode none
attr recordingmode vector(packetBytes)
attr source packetSent
attr title "packets echoed, packetBytes"
vector 52 MixedWLAN.udphost[0].udp packetSent:vector(packetBytes) ETV
attr interpolationmode none
attr recordingmode vector(packetBytes)
attr source packetSent
attr title "packets sent, packetBytes"
vector 53 MixedWLAN.udphost[2].udp packetReceived:vector(packetBytes) ETV
attr interpolationmode none
attr recordingmode vector(packetBytes)
attr source packetReceived
attr title "packets received, packetBytes"
vector 54 MixedWLAN.udphost[2].app[0] packetReceived:vector(packetBytes) ETV
attr interpolationmode none
attr recordingmode vector(packetBytes)
attr source packetReceived
attr title "packets received, packetBytes"
vector 55 MixedWLAN.udphost[2].app[0] rcvdPkLifetime:vector ETV
attr interpolationmode none
attr recordingmode vector
attr source dataAge(packetReceived)
attr title "received packet lifetime"
attr unit s
vector 56 MixedWLAN.udphost[2].app[0] rcvdPkSeqNo:vector ETV
attr interpolationmode none
attr recordingmode vector
attr source appPkSeqNo(packetReceived)
attr title "received packet sequence number"
vector 57 MixedWLAN.tcphost[1].app[0] packetSent:vector(packetBytes) ETV
attr interpolationmode none
attr recordingmode vector(packetBytes)
attr source packetSent
attr title "packets sent, packetBytes"
vector 58 MixedWLAN.tcphost[2].app[0] packetSent:vector(packetBytes) ETV
attr interpolationmode none
attr recordingmode vector(packetBytes)
attr source packetSent
attr title "packets sent, packetBytes"
vector 59 MixedWLAN.tcphost[3].app[0] packetSent:vector(packetBytes) ETV
attr interpolationmode none
attr recordingmode vector(packetBytes)
attr source packetSent
attr title "packets sent, packetBytes"
vector 60 MixedWLAN.tcphost[4].app[0] packetSent:vector(packetBytes) ETV
attr interpolationmode none
attr recordingmode vector(packetBytes)
attr source packetSent
attr title "packets sent, packetBytes"
vector 61 MixedWLAN.udphost[1].udp packetReceived:vector(packetBytes) ETV
attr interpolationmode none
attr recordingmode vector(packetBytes)
attr source packetReceived
attr title "packets received, packetBytes"
vector 62 MixedWLAN.udphost[1].app[0] packetReceived:vector(packetBytes) ETV
attr interpolationmode none
attr recordingmode vector(packetBytes)
attr source packetReceived
attr title "packets received, packetBytes"
vector 63 MixedWLAN.udphost[1].app[0] rcvdPkLifetime:vector ETV
attr interpolationmode none
attr recordingmode vector
attr source dataAge(packetReceived)
attr title "received packet lifetime"
attr unit s
vector 64 MixedWLAN.udphost[1].app[0] rcvdPkSeqNo:vector ETV
attr interpolationmode none
attr recordingmode vector
attr source appPkSeqNo(packetReceived)
attr title "received packet sequence number"
vector 65 MixedWLAN.tcphost[6].app[0] packetSent:vector(packetBytes) ETV
attr interpolationmode none
attr recordingmode vector(packetBytes)
attr source packetSent
attr title "packets sent, packetBytes"
vector 66 MixedWLAN.tcphost[5].app[0] packetSent:vector(packetBytes) ETV
attr interpolationmode none
attr recordingmode vector(packetBytes)
attr source packetSent
attr title "packets sent, packetBytes"
vector 67 MixedWLAN.tcphost[0].app[0] packetReceived:vector(packetBytes) ETV
attr interpolationmode none
attr recordingmode vector(packetBytes)
attr source packetReceived
attr title "packets received, packetBytes"
vector 68 MixedWLAN.tcphost[0].app[0] endToEndDelay:vector ETV
attr interpolationmode none
attr recordingmode vector
attr source dataAge(packetReceived)
attr title "end-to-end delay"
attr unit s
vector 69 MixedWLAN.tcphost[0].app[0] packetSent:vector(packetBytes) ETV
attr interpolationmode none
attr recordingmode vector(packetBytes)
attr source packetSent
attr title "packets sent, packetBytes"
vector 70 MixedWLAN.tcphost[3].app[0] packetReceived:vector(packetBytes) ETV
attr interpolationmode none
attr recordingmode vector(packetBytes)
attr source packetReceived
attr title "packets received, packetBytes"
vector 71 MixedWLAN.tcphost[3].app[0] endToEndDelay:vector ETV
attr interpolationmode none
attr recordingmode vector
attr source dataAge(packetReceived)
attr title "end-to-end delay"
attr unit s
vector 72 MixedWLAN.tcphost[1].app[0] packetReceived:vector(packetBytes) ETV
attr interpolationmode none
attr recordingmode vector(packetBytes)
attr source packetReceived
attr title "packets received, packetBytes"
vector 73 MixedWLAN.tcphost[1].app[0] endToEndDelay:vector ETV
attr interpolationmode none
attr recordingmode vector
attr source dataAge(packetReceived)
attr title "end-to-end delay"
attr unit s
vector 74 MixedWLAN.tcphost[2].app[0] packetReceived:vector(packetBytes) ETV
attr interpolationmode none
attr recordingmode vector(packetBytes)
attr source packetReceived
attr title "packets received, packetBytes"
vector 75 MixedWLAN.tcphost[2].app[0] endToEndDelay:vector ETV
attr interpolationmode none
attr recordingmode vector
attr source dataAge(packetReceived)
attr title "end-to-end delay"
attr unit s
vector 76 MixedWLAN.tcphost[4].app[0] packetReceived:vector(packetBytes) ETV
attr interpolationmode none
attr recordingmode vector(packetBytes)
attr source packetReceived
attr title "packets received, packetBytes"
vector 77 MixedWLAN.tcphost[4].app[0] endToEndDelay:vector ETV
attr interpolationmode none
attr recordingmode vector
attr source dataAge(packetReceived)
attr title "end-to-end delay"
attr unit s
vector 78 MixedWLAN.tcphost[6].app[0] packetReceived:vector(packetBytes) ETV
attr interpolationmode none
attr recordingmode vector(packetBytes)
attr source packetReceived
attr title "packets received, packetBytes"
vector 79 MixedWLAN.tcphost[6].app[0] endToEndDelay:vector ETV
attr interpolationmode none
attr recordingmode vector
attr source dataAge(packetReceived)
attr title "end-to-end delay"
attr unit s
vector 80 MixedWLAN.tcphost[5].app[0] packetReceived:vector(packetBytes) ETV
attr interpolationmode none
attr recordingmode vector(packetBytes)
attr source packetReceived
attr title "packets received, packetBytes"
vector 81 MixedWLAN.tcphost[5].app[0] endToEndDelay:vector ETV
attr interpolationmode none
attr recordingmode vector
attr source dataAge(packetReceived)
attr title "end-to-end delay"
attr unit s
vector 82 MixedWLAN.udphost[2].app[0] throughput:vector ETV
attr recordingmode vector
attr source throughput(packetReceived)
attr title throughput
attr unit bps
vector 83 MixedWLAN.udphost[1].app[0] throughput:vector ETV
attr recordingmode vector
attr source throughput(packetReceived)
attr title throughput
attr unit bps
0	0	0	0
0	2716	0.006186001301	1
0	4624	0.010958620478	2
0	19372	0.044458033331	3
0	19876	0.045797406545	4
0	23494	0.07940706935	5
0	24127	0.084497898215	6
0	39425	0.122542166958	7
0	40539	0.125151993976	8
0	47195	0.159127159971	9
0	49287	0.165445344179	10
0	63886	0.199393149987	11
0	65052	0.202030447243	12
0	76719	0.242002712863	13
0	78749	0.246879053592	14
0	92611	0.284794601765	15
0	94716	0.290083549614	16
0	106667	0.31993850917	17
0	110890	0.329771068011	18
0	121789	0.364589471648	19
0	125951	0.374888019952	20
0	137019	0.40654862101	21
0	138351	0.409880558135	22
0	152111	0.445119242501	23
0	154500	0.45094020261	24
0	168114	0.487703505093	25
0	169025	0.489871052129	26
0	183994	0.528881967858	27
0	184747	0.530623744357	28
0	195633	0.564391706302	29
0	199174	0.573062911705	30
0	210771	0.607766650436	31
0	211748	0.610205355354	32
0	227050	0.649783893259	33
0	228486	0.653475954975	34
0	242203	0.69045127452	35
0	243195	0.6929169124	36
0	257888	0.729116066718	37
0	258298	0.730154327592	38
0	271600	0.768198384008	39
0	273897	0.773397908069	40
0	287141	0.809856044197	41
0	288395	0.813139872092	42
0	303255	0.848922185693	43
0	304423	0.851864283862	44
0	316451	0.888038152067	45
0	318209	0.892291927616	46
0	331992	0.925724331297	47
0	333505	0.929697753699	48
0	345557	0.968731727233	49
0	345979	0.969656018159	50
0	359185	1.002483594306	51
0	359890	1.00976235084	52
0	375178	1.047654475832	53
0	376704	1.051409000571	54
0	385651	1.082872734631	55
0	388281	1.089453011544	56
0	403846	1.126279271182	57
0	405469	1.131432280656	58
0	418870	1.170809183224	59
0	420656	1.174800206393	60
0	430076	1.20619010587	61
0	433938	1.215296256466	62
0	446933	1.246707920194	63
0	450294	1.255332675499	64
0	461456	1.289155278138	65
0	466555	1.300851479668	66
0	476948	1.328349727959	67
0	483275	1.344431923846	68
0	491473	1.366832593517	69
0	499529	1.387277422087	70
0	506805	1.404903247147	71
0	515229	1.432110901044	72
0	518658	1.44048466353	73
0	530326	1.469243371828	74
0	533204	1.481490306062	75
0	545998	1.515578184238	76
0	549357	1.523323429711	77
0	558906	1.551260279669	78
0	562982	1.562905267288	79
0	574045	1.592304034629	80
0	579019	1.60425453786	81
0	586689	1.6290678649	82
0	591052	1.640080956648	83
0	602031	1.666975933046	84
0	605394	1.675918114384	85
0	615655	1.702958360669	86
0	622841	1.719585328955	87
0	629310	1.738651160877	88
0	635987	1.757152395719	89
0	644479	1.778298546073	90
0	649520	1.794913600163	91
0	659760	1.821546747515	92
0	665049	1.834991664512	93
0	673921	1.858752765683	94
0	681640	1.878002832567	95
0	689870	1.902856962159	96
0	695723	1.916610212835	97
0	706781	1.944895622901	98
0	710658	1.9589029755	99
0	720982	1.983385074472	100
0	724943	1.993101421414	101
0	735740	2.02383891463	102
0	740124	2.03453403682	103
0	749695	2.057897473798	104
0	755608	2.075920245318	105
0	761929	2.094074239161	106
0	771030	2.115723341723	107
0	776311	2.128623003299	108
0	785548	2.155402091273	109
0	792658	2.172865746905	110
0	799743	2.195472078529	111
0	805926	2.210111875405	112
0	816176	2.234709697566	113
0	819628	2.251164760227	114
0	828674	2.273564374961	115
0	837792	2.295693729086	116
0	842870	2.31634341889	117
0	852426	2.33995828898	118
0	858675	2.354686478069	119
0	865894	2.374740698593	120
0	869306	2.389931588924	121
0	880821	2.41743266481	122
0	885681	2.429684391214	123
0	893762	2.455735633623	124
0	899058	2.46882034976	125
0	908450	2.498941725402	126
0	910963	2.505673409056	127
0	926059	2.542082002406	128
0	927417	2.545412221088	129
0	940494	2.584141022095	130
0	941060	2.585491689889	131
0	954809	2.61906618998	132
0	956942	2.624129361676	133
0	968216	2.661945121645	134
0	970081	2.666313679343	135
0	980310	2.695874245906	136
0	981490	2.703223937048	137
0	996533	2.739458208144	138
0	999714	2.746702273869	139
0	1009965	2.779951708963	140
0	1013914	2.789311104835	141
0	1025668	2.820012999957	142
0	1027472	2.826944043721	143
0	1041021	2.861685665435	144
0	1043230	2.866800010054	145
0	1057840	2.906437964567	146
0	1059710	2.910970477633	147
0	1071987	2.942011480103	148
0	1073015	2.947792304205	149
0	1088479	2.987015524668	150
0	1088983	2.988156927078	151
0	1100823	3.021279775651	152
0	1102350	3.025385139234	153
0	1115899	3.065129865853	154
0	1116804	3.067458820665	155
0	1127243	3.101965212457	156
0	1128407	3.104825308481	157
0	1143560	3.142031733764	158
0	1145171	3.145828678198	159
0	1155517	3.179908431757	160
0	1158535	3.186823553179	161
0	1169523	3.219619982505	162
0	1172002	3.226133154234	163
0	1184405	3.256205797408	164
0	1188931	3.269856981265	165
0	1196815	3.296495295791	166
0	1203732	3.312621429448	167
0	1211599	3.334746753986	168
0	1212391	3.346596323627	169
0	1225792	3.378617987555	170
0	1231246	3.391500328358	171
0	1237677	3.417449352429	172
0	1244338	3.435258650265	173
0	1251848	3.456921822244	174
0	1260686	3.478475489998	175
0	1265462	3.494355191474	176
0	1277484	3.524616286192	177
0	1281132	3.536477511115	178
0	1292259	3.565784433542	179
0	1297887	3.579754365566	180
0	1306605	3.603629320361	181
0	1311976	3.61778763394	182
0	1324771	3.648996272675	183
0	1327193	3.657616219885	184
0	1338761	3.689617841518	185
0	1340287	3.693134420494	186
0	1353808	3.730396446711	187
0	1354132	3.731172566049	188
0	1368460	3.769532516529	189
0	1369800	3.772646753271	190
0	1381563	3.810217231198	191
0	1381969	3.811244609184	192
0	1394669	3.844300748131	193
0	1396018	3.84772599093	194
0	1405777	3.879421822881	195
0	1409995	3.889648361273	196
0	1420672	3.921786680142	197
0	1423158	3.928149348323	198
0	1436326	3.962372373361	199
0	1436987	3.963933896881	200
0	1448944	3.999360570075	201
0	1452455	4.007508784377	202
0	1464165	4.040676055373	203
0	1465925	4.045169774212	204
0	1479205	4.080890310023	205
0	1480365	4.083623992937	206
0	1492112	4.121636507711	207
0	1493349	4.124946397655	208
0	1507260	4.157385760184	209
0	1510706	4.165564914162	210
0	1520722	4.199697506599	211
0	1525387	4.211108696993	212
0	1535563	4.238250209888	213
0	1540673	4.253102930178	214
0	1549813	4.277477193561	215
0	1556243	4.293080028756	216
0	1560776	4.309429422811	217
0	1570217	4.337073210825	218
0	1576086	4.351300251706	219
0	1583697	4.375319376324	220
0	1589371	4.390472145962	221
0	1602166	4.421289110969	222
0	1603519	4.425137060907	223
0	1614536	4.461276406349	224
0	1617003	4.467461043266	225
0	1631557	4.502547496607	226
0	1632923	4.507511115191	227
0	1645856	4.545273141595	228
0	1646175	4.546031260933	229
0	1659062	4.579727184391	230
0	1662157	4.587155319315	231
0	1673351	4.620150438129	232
0	1675292	4.624749413089	233
0	1684007	4.654335366522	234
0	1686520	4.660908868927	235
0	1700797	4.695335489301	236
0	1702316	4.69903704984	237
0	1712724	4.734066091209	238
0	1717234	4.745008522055	239
0	1726903	4.770078931634	240
0	1732199	4.786264442773	241
0	1743017	4.813944890006	242
0	1749864	4.830738707505	243
0	1753645	4.851394912679	244
0	1762654	4.87310324485	245
0	1769326	4.889147361076	246
0	1775247	4.911890220752	247
0	1781373	4.927594851312	248
0	1791645	4.955166332748	249
0	1794812	4.963351717705	250
0	1806665	4.997420280888	251
0	1809233	5.003546755228	252
0	1820871	5.032189377718	253
0	1824406	5.040953151324	254
0	1832809	5.067908755974	255
0	1837920	5.07984847901	256
0	1848459	5.110699821576	257
0	1852271	5.122236486371	258
0	1864450	5.151095408016	259
0	1868470	5.164453314637	260
0	1876701	5.190030081243	261
0	1884897	5.209671591971	262
0	1890596	5.228859398399	263
0	1897211	5.245216738497	264
0	1906439	5.270832640599	265
0	1913499	5.289494803932	266
0	1917067	5.303596741908	267
0	1926962	5.332109308037	268
0	1931287	5.342070510011	269
0	1941153	5.368658575888	270
0	1943958	5.382057484639	271
0	1952428	5.40590341272	272
0	1959654	5.423007970896	273
0	1967199	5.446357102725	274
0	1970973	5.462477639794	275
0	1979960	5.483784038917	276
0	1989014	5.506335860443	277
0	1992144	5.523012075942	278
0	2001746	5.546092989437	279
0	2007903	5.560266232724	280
0	2015827	5.585145295429	281
0	2021737	5.601101835089	282
0	2030162	5.625010539591	283
0	2038388	5.645003696469	284
0	2046317	5.665491937119	285
0	2051024	5.68122773237	286
0	2061530	5.708740044573	287
0	2066721	5.720923535021	288
0	2076336	5.752644427754	289
0	2078880	5.758844988415	290
0	2094215	5.795200151726	291
0	2095132	5.797537864483	292
0	2107678	5.837652909737	293
0	2108762	5.840036972045	294
0	2120998	5.874207035995	295
0	2122014	5.878368949713	296
0	2134445	5.910407825708	297
0	2137982	5.919030442422	298
0	2148435	5.947808875489	299
0	2154149	5.961042410624	300
0	2163099	5.986011793829	301
0	2167519	5.997137349142	302
0	2175483	6.022727882067	303
0	2182411	6.039323878638	304
0	2193128	6.06477493094	305
0	2197133	6.077628326524	306
0	2206861	6.108428959355	307
0	2213375	6.123787006743	308
0	2219972	6.148677726235	309
0	2226585	6.164706835917	310
0	2236451	6.18759049599	311
0	2240064	6.204378191606	312
0	2250811	6.231158952922	313
0	2257190	6.24636798455	314
0	2267701	6.27645242346	315
0	2269847	6.281901331741	316
0	2281780	6.311580268066	317
0	2282730	6.3177541863	318
0	2296641	6.353814608386	319
0	2297819	6.356569583365	320
0	2312815	6.39696988581	321
0	2313556	6.398612464065	322
0	2325861	6.434421732729	323
0	2328256	6.440218552118	324
0	2341291	6.471263936628	325
0	2344220	6.478914071354	326
0	2351961	6.507969899093	327
0	2358106	6.522555160798	328
0	2367635	6.551196922211	329
0	2371646	6.561516594801	330
0	2383514	6.592853642391	331
0	2388441	6.604284851565	332
0	2399344	6.632123665887	333
0	2405336	6.64769397216	334
0	2413690	6.670911463398	335
0	2419244	6.68531689938	336
0	2430179	6.71450223425	337
0	2433977	6.723742626635	338
0	2444955	6.752303854046	339
0	2449736	6.766881664702	340
0	2458772	6.788770080228	341
0	2466625	6.810602716281	342
0	2474006	6.832038884433	343
0	2482100	6.853505797306	344
0	2489419	6.8739654933	345
0	2495192	6.888579302649	346
0	2504592	6.911165655769	347
0	2508601	6.924644825023	348
0	2516814	6.945735827729	349
0	2523492	6.962250447755	350
0	2532742	6.98844472157	351
0	2537814	7.002029178361	352
0	2548850	7.028708599166	353
0	2554491	7.044190253201	354
0	2562932	7.068104237823	355
0	2569782	7.086114368271	356
0	2577736	7.104617248227	357
0	2584124	7.125085053761	358
0	2590694	7.145088309344	359
0	2599767	7.165714837414	360
0	2606525	7.1823704285	361
0	2612243	7.203048478771	362
0	2619542	7.22262621675	363
0	2628501	7.246277519234	364
0	2632631	7.256224195911	365
0	2640826	7.283648990843	366
0	2644520	7.292110997109	367
0	2656439	7.327326559707	368
0	2658043	7.331572645709	369
0	2674210	7.370622876147	370
0	2674800	7.372017220184	371
0	2687615	7.409611904282	372
0	2690081	7.415712479958	373
0	2704461	7.451949887382	374
0	2706850	7.458042894843	375
0	2716671	7.489653313811	376
0	2718880	7.495208489554	377
0	2728731	7.522460574146	378
0	2729930	7.531757143221	379
0	2744356	7.566161132953	380
0	2746491	7.571179133159	381
0	2758365	7.607720447331	382
0	2759701	7.610869439718	383
0	2773408	7.648216834782	384
0	2776126	7.654653559048	385
0	2790519	7.690277952988	386
0	2791652	7.697473191917	387
0	2805112	7.731318987067	388
0	2808823	7.740093028549	389
0	2821442	7.774080902416	390
0	2823317	7.778710051974	391
0	2836791	7.817860106051	392
0	2837966	7.820606908417	393
0	2850390	7.856821240983	394
0	2851481	7.859498052211	395
0	2864006	7.894381019094	396
0	2868001	7.904347428639	397
0	2878030	7.930673875871	398
0	2882084	7.940484155872	399
0	2895184	7.974243611794	400
0	2897393	7.979947329334	401
0	2910011	8.013061058703	402
0	2912231	8.018746407742	403
0	2923582	8.051820390188	404
0	2926451	8.058841653625	405
0	2939396	8.094689179417	406
0	2941765	8.100623424452	407
0	2956454	8.135028486371	408
0	2959232	8.143775045793	409
0	2970874	8.178202491741	410
0	2972744	8.182303336385	411
0	2986975	8.216636974644	412
0	2987791	8.218632608916	413
0	2999075	8.254198589578	414
0	3004579	8.267956787538	415
0	3011939	8.292147925815	416
0	3015664	8.301518549914	417
0	3028106	8.332266800095	418
0	3030592	8.338070717452	419
0	3041381	8.372481026751	420
0	3044511	8.380243024436	421
0	3057757	8.412074002422	422
0	3059366	8.415713715436	423
0	3069890	8.448208933172	424
0	3071326	8.451779373538	425
0	3083493	8.485640374557	426
0	3086743	8.49370357922	427
0	3099439	8.52515414482	428
0	3101400	8.529748288086	429
0	3113512	8.567712555818	430
0	3113919	8.568659877657	431
0	3127336	8.604900787389	432
0	3129303	8.609977493975	433
0	3143025	8.646008860742	434
0	3144026	8.648372712348	435
0	3158838	8.688586879712	436
0	3159734	8.690844521282	437
0	3173990	8.730082872708	438
0	3175955	8.734889734782	439
0	3185640	8.764210917541	440
0	3187099	8.770768333827	441
0	3200193	8.802525541421	442
0	3205214	8.814853747586	443
0	3212762	8.83992849394	444
0	3217882	8.852815860004	445
0	3228455	8.882242691093	446
0	3230057	8.886246086347	447
0	3245887	8.928271886848	448
0	3246719	8.930131292934	449
0	3260362	8.969702171855	450
0	3262020	8.973539061985	451
0	3276385	9.009815993548	452
0	3276551	9.010275993548	453
0	3290898	9.049995504747	454
0	3291064	9.050338504747	455
0	3304793	9.09221898519	456
0	3306308	9.095730351828	457
0	3319978	9.129533578637	458
0	3321504	9.133312362657	459
0	3333141	9.171469351502	460
0	3335640	9.177152034164	461
0	3346614	9.208224453964	462
0	3347293	9.214627826461	463
0	3360655	9.249526291772	464
0	3366179	9.262788442207	465
0	3373098	9.285656442734	466
0	3374205	9.295164744696	467
0	3389415	9.330654864422	468
0	3391016	9.334293437129	469
0	3399830	9.37061976294	470
0	3402457	9.376746909952	471
0	3415890	9.411139536702	472
0	3416745	9.418919916136	473
0	3428856	9.451127684191	474
0	3432303	9.459000691127	475
0	3441219	9.491680900689	476
0	3443845	9.497866463859	477
0	3456548	9.5289422965	478
0	3459560	9.536814009879	479
0	3470887	9.570853726274	480
0	3475192	9.581489450733	481
0	3487151	9.612611224356	482
0	3488668	9.616385765442	483
0	3501546	9.651446811255	484
0	3505258	9.659916984012	485
0	3514857	9.691200106988	486
0	3517154	9.697196236784	487
0	3532760	9.734243546341	488
0	3533082	9.735001665679	489
0	3545002	9.769761413581	490
0	3548357	9.777581468222	491
0	3558130	9.80894630855	492
0	3559898	9.81310337866	493
0	3572046	9.843072554734	494
0	3575764	9.852450348558	495
0	3585734	9.883892330517	496
0	3591498	9.897451908692	497
0	3602658	9.922899471521	498
0	3604699	9.936568412979	499
0	3614306	9.962463909931	500
0	3619668	9.974969712477	501
0	3627328	9.997338377966	502
1	0	0	0
2	0	0	0
3	0	0	0
3	6272	0.014343446411	1
3	21350	0.049520833032	2
3	24455	0.085346066036	3
3	42327	0.129739803196	4
3	49875	0.166851816887	5
3	65657	0.203428970261	6
3	79350	0.248285510017	7
3	95224	0.29120401376	8
3	111492	0.33138651187	9
3	126545	0.376269481431	10
3	139362	0.412279645815	11
3	155002	0.451973605791	12
3	169967	0.492134114281	13
3	185684	0.5329156072	14
3	200283	0.575730856435	15
3	212175	0.611126657677	16
3	228913	0.654577136874	17
3	243547	0.693640344809	18
3	258966	0.731805926782	19
3	274662	0.775108771132	20
3	288898	0.814466181449	21
3	304851	0.852902574735	22
3	319330	0.894965962537	23
3	333924	0.930754056022	24
3	346820	0.971626989474	25
3	360307	1.010656665729	26
3	377302	1.052740553724	27
3	389203	1.091556015662	28
3	405806	1.132280448477	29
3	421254	1.176248843103	30
3	434712	1.217087024896	31
3	451066	1.257044336787	32
3	467594	1.303226342908	33
3	484052	1.346344687863	34
3	500125	1.388713034277	35
3	515911	1.433703576322	36
3	530746	1.470338661719	37
3	547379	1.518765326518	38
3	559416	1.552595594558	39
3	574634	1.593680675327	40
3	587370	1.630625268081	41
3	602455	1.667960272455	42
3	616252	1.704316946064	43
3	630338	1.740942077563	44
3	645233	1.780179231236	45
3	660188	1.822552062404	46
3	674780	1.860774348722	47
3	690616	1.90449992312	48
3	707117	1.945770790722	49
3	721502	1.984724466992	50
3	736598	2.025872706661	51
3	750032	2.058727641619	52
3	762606	2.09567990693	53
3	776648	2.12947117112	54
3	793339	2.17441946114	55
3	806516	2.21140437241	56
3	820380	2.252867625098	57
3	838388	2.297067364397	58
3	853460	2.342282461977	59
3	866311	2.37567100795	60
3	881599	2.419318257239	61
3	894798	2.458254483198	62
3	909030	2.500372341459	63
3	926838	2.543923658532	64
3	942583	2.588992213931	65
3	955408	2.620509678223	66
3	970784	2.667705374275	67
3	983335	2.707534681228	68
3	1000393	2.748309760213	69
3	1015102	2.792472495044	70
3	1027980	2.82807648758	71
3	1044339	2.8692423923	72
3	1060219	2.912226028054	73
3	1073607	2.949138875611	74
3	1089836	2.990071678399	75
3	1101594	3.023129492742	76
3	1117312	3.068632135554	77
3	1129159	3.106765133463	78
3	1143992	3.143091036087	79
3	1156732	3.182665703271	80
3	1169941	3.22054428115	81
3	1185092	3.257975338184	82
3	1197998	3.299309570574	83
3	1211934	3.335450921807	84
3	1226905	3.381206245859	85
3	1238276	3.418822803322	86
3	1252358	3.458150131601	87
3	1266582	3.496636220817	88
3	1281468	3.537217678936	89
3	1298658	3.581456060599	90
3	1312563	3.619101168545	91
3	1327788	3.659010893989	92
3	1341223	3.695120522891	93
3	1354973	3.733261125881	94
3	1369213	3.771207263056	95
3	1383236	3.814247597567	96
3	1396353	3.848475158751	97
3	1410940	3.891977242771	98
3	1424189	3.93053348281	99
3	1437747	3.965679430937	100
3	1453226	4.009172532969	101
3	1466525	4.046527342217	102
3	1479900	4.082521127971	103
3	1492528	4.122557769356	104
3	1508037	4.159099650163	105
3	1521060	4.20063567442	106
3	1536417	4.240127249676	107
3	1550856	4.279923369344	108
3	1561112	4.310340590632	109
3	1577021	4.353462342837	110
3	1590058	4.392083750426	111
3	1603855	4.426030228728	112
3	1617854	4.469480139052	113
3	1633258	4.508377283012	114
3	1647440	4.549032428854	115
3	1662567	4.588192628672	116
3	1675973	4.62638203557	117
3	1686926	4.661949167572	118
3	1702914	4.700292447892	119
3	1718275	4.747611587911	120
3	1732536	4.787166610594	121
3	1750294	4.831677016862	122
3	1764283	4.876893788998	123
3	1775575	4.912711388573	124
3	1792156	4.956385851326	125
3	1807344	4.998950867104	126
3	1821298	5.033109717127	127
3	1833848	5.070459746511	128
3	1848967	5.111865313624	129
3	1865050	5.152570858909	130
3	1877638	5.19209904353	131
3	1891102	5.23006084779	132
3	1907733	5.273690714334	133
3	1917401	5.304372909729	134
3	1933174	5.346539421329	135
3	1944294	5.38300465246	136
3	1960656	5.425594205341	137
3	1971821	5.464490558556	138
3	1989768	5.508180557724	139
3	2002777	5.548455951867	140
3	2016601	5.587184045378	141
3	2030845	5.626679198517	142
3	2046909	5.666904415343	143
3	2062730	5.711462292754	144
3	2076851	5.753836908699	145
3	2094734	5.796418454049	146
3	2109788	5.842551658298	147
3	2121332	5.875055203816	148
3	2135394	5.912714664005	149
3	2148950	5.949013190378	150
3	2164043	5.988204749685	151
3	2175911	6.023747191424	152
3	2193816	6.066418577411	153
3	2207803	6.110532744964	154
3	2220307	6.149561894056	155
3	2237303	6.189626107759	156
3	2252342	6.234702472961	157
3	2268646	6.27883913246	158
3	2282207	6.312464557613	159
3	2297153	6.354978917743	160
3	2313250	6.397935195167	161
3	2326631	6.436064504319	162
3	2341712	6.472374245985	163
3	2352825	6.509873905387	164
3	2368143	6.552479410454	165
3	2384023	6.594001038538	166
3	2400201	6.63414260275	167
3	2414112	6.671949753289	168
3	2430856	6.716050042548	169
3	2445637	6.753911344017	170
3	2459372	6.790178520409	171
3	2474509	6.833270340858	172
3	2489837	6.874976802657	173
3	2505449	6.913087593652	174
3	2517414	6.947094257198	175
3	2533159	6.989392036459	176
3	2549891	7.031002460733	177
3	2563441	7.069305718768	178
3	2578420	7.106254734571	179
3	2591338	7.146657891061	180
3	2607036	7.18340082774	181
3	2620914	7.225805513683	182
3	2633490	7.258164890944	183
3	2645378	7.294002794391	184
3	2658460	7.332622896693	185
3	2675821	7.374270224563	186
3	2690764	7.417273113542	187
3	2707276	7.459063209732	188
3	2719740	7.497224246158	189
3	2730455	7.532976563936	190
3	2747174	7.572812649132	191
3	2759552	7.610508488201	192
3	2774093	7.649711493696	193
3	2791033	7.691550251633	194
3	2805535	7.732303285712	195
3	2821868	7.775137129785	196
3	2837732	7.819992700077	197
3	2851241	7.858874959158	198
3	2864516	7.895693317739	199
3	2878556	7.931847332296	200
3	2895774	7.975670135862	201
3	2910436	8.013982398112	202
3	2925266	8.055889342896	203
3	2939908	8.095938488774	204
3	2957313	8.137172105102	205
3	2972072	8.180706575049	206
3	2987552	8.217982515863	207
3	3005357	8.26957161573	208
3	3016439	8.303442228047	209
3	3031099	8.339362154277	210
3	3045539	8.382830006323	211
3	3060052	8.417243438363	212
3	3072013	8.453273907594	213
3	3087423	8.495306378684	214
3	3102342	8.531866254713	215
3	3114768	8.57065869658	216
3	3129905	8.61128597492	217
3	3144709	8.649915485677	218
3	3159585	8.690375569765	219
3	3174936	8.732191687853	220
3	3185968	8.765050085362	221
3	3201225	8.804905643788	222
3	3213539	8.841757169532	223
3	3229045	8.88361624284	224
3	3246569	8.929788341417	225
3	3264192	8.978442390027	226
3	3277817	9.013098084656	227
3	3292153	9.053063550208	228
3	3307236	9.097890480548	229
3	3322098	9.134646888593	230
3	3336839	9.179924281782	231
3	3347708	9.21564816587	232
3	3366693	9.264114703852	233
3	3374891	9.296776436491	234
3	3392142	9.337082407336	235
3	3401013	9.37325526966	236
3	3416306	9.412195835347	237
3	3429721	9.453064559566	238
3	3441986	9.493358596254	239
3	3457232	9.530574752925	240
3	3471488	9.572302207219	241
3	3487653	9.613785653825	242
3	3502496	9.653618747407	243
3	3515190	9.691895274809	244
3	3533768	9.736577199366	245
3	3545948	9.771911505671	246
3	3558804	9.810458941635	247
3	3572651	9.844461986161	248
3	3586584	9.885940358835	249
3	3603339	9.924453160366	250
3	3615237	9.964520057676	251
3	3627835	9.998605687323	252
4	0	0	0
5	0	0	0
6	0	0	0
6	4138	0.009801257529	1
6	21607	0.050081049793	2
6	23826	0.080147312396	3
6	41645	0.127971171891	4
6	47527	0.160002403017	5
6	64581	0.200884989964	6
6	77157	0.242915102977	7
6	93362	0.286511426987	8
6	107523	0.32178218741	9
6	122479	0.366152176652	10
6	137700	0.408246136416	11
6	152965	0.447020158454	12
6	168699	0.489013034301	13
6	185354	0.53205735677	14
6	196153	0.565692221708	15
6	211602	0.609709479062	16
6	227390	0.650542136305	17
6	244806	0.696621614786	18
6	258725	0.731156692708	19
6	272878	0.770968932772	20
6	287563	0.810750428779	21
6	303774	0.850168747395	22
6	316970	0.889076607066	23
6	332602	0.927158846703	24
6	347153	0.97235049311	25
6	359526	1.003448837352	26
6	375702	1.04883798214	27
6	386074	1.083857071501	28
6	404624	1.128314004472	29
6	419912	1.173085507134	30
6	430855	1.208162859228	31
6	447623	1.248360669849	32
6	462320	1.291164220744	33
6	477375	1.329226118073	34
6	491990	1.368006054228	35
6	507496	1.406409989844	36
6	519257	1.441842336716	37
6	533715	1.482655690644	38
6	550312	1.525457274352	39
6	563655	1.564560876569	40
6	579799	1.605876265062	41
6	592178	1.642390199397	42
6	605996	1.677479670554	43
6	623438	1.720922069142	44
6	636500	1.758320769589	45
6	650116	1.796245212576	46
6	665824	1.836904516183	47
6	682246	1.879468364217	48
6	696585	1.918555993567	49
6	711333	1.960634597188	50
6	725633	1.994691189922	51
6	741333	2.037296145774	52
6	756207	2.077215864923	53
6	771799	2.117408194132	54
6	785971	2.156376475855	55
6	800342	2.196878705501	56
6	816865	2.236194306533	57
6	829795	2.276354425215	58
6	843646	2.318328403292	59
6	859706	2.356834875852	60
6	869810	2.391091097296	61
6	886367	2.431272106256	62
6	900098	2.47133860025	63
6	911561	2.507029048252	64
6	927929	2.54664072774	65
6	942250	2.588148944035	66
6	957372	2.62514875179	67
6	969411	2.664648258009	68
6	980652	2.696812488952	69
6	997220	2.741036851374	70
6	1010824	2.781795709498	71
6	1026177	2.821061568556	72
6	1041952	2.863932555669	73
6	1058438	2.907811576389	74
6	1072587	2.943491056474	75
6	1090269	2.991185063482	76
6	1102778	3.026513465443	77
6	1118006	3.070364681499	78
6	1127861	3.103328842448	79
6	1145770	3.14718234813	80
6	1160093	3.190440065387	81
6	1172518	3.227396643015	82
6	1189447	3.270977355135	83
6	1204520	3.314459196249	84
6	1212893	3.347788708209	85
6	1231763	3.392683843764	86
6	1245201	3.437020441383	87
6	1261368	3.48000223737	88
6	1278353	3.526958212494	89
6	1292850	3.56737078449	90
6	1307124	3.60479288896	91
6	1325290	3.65026688981	92
6	1339621	3.691585862771	93
6	1354490	3.731997831293	94
6	1370756	3.774854684531	95
6	1383078	3.813904672792	96
6	1395187	3.845568252825	97
6	1406207	3.880352207463	98
6	1421271	3.923256301392	99
6	1437168	3.964277020589	100
6	1449553	4.000658779858	101
6	1465010	4.042833094419	102
6	1481395	4.085864323787	103
6	1493932	4.126233058275	104
6	1511132	4.166512298744	105
6	1526336	4.213292879082	106
6	1541013	4.253960173224	107
6	1557194	4.295336108322	108
6	1570736	4.338273689231	109
6	1584036	4.37608661937	110
6	1602853	4.422780922437	111
6	1615130	4.46269816502	112
6	1632159	4.503923941379	113
6	1647026	4.548092158958	114
6	1659401	4.580440427437	115
6	1674635	4.623255869434	116
6	1684432	4.655444692731	117
6	1701487	4.697037277468	118
6	1713498	4.73587994288	119
6	1727764	4.772061854774	120
6	1743798	4.815669668692	121
6	1754396	4.853223922868	122
6	1770012	4.890645839482	123
6	1782154	4.929358780288	124
6	1795406	4.964804236789	125
6	1810084	5.005559575385	126
6	1825009	5.042343640105	127
6	1838765	5.082157217015	128
6	1852961	5.123992005455	129
6	1869067	5.165931940283	130
6	1885853	5.211844615148	131
6	1897550	5.245902981543	132
6	1914002	5.290741188514	133
6	1928004	5.334439314033	134
6	1941750	5.370083194719	135
6	1953033	5.407293937336	136
6	1967881	5.447968642921	137
6	1980735	5.485481051464	138
6	1992728	5.524325724704	139
6	2008670	5.561913903659	140
6	2022841	5.603683966892	141
6	2039246	5.646901732874	142
6	2051361	5.681940975416	143
6	2067593	5.722986181609	144
6	2079743	5.760920897359	145
6	2095472	5.798314107529	146
6	2109189	5.840985308915	147
6	2122612	5.879835697429	148
6	2138839	5.921040427488	149
6	2154577	5.961972736833	150
6	2167859	5.997976592188	151
6	2183191	6.041100622382	152
6	2197471	6.07842256957	153
6	2214593	6.126612246073	154
6	2227449	6.166655781813	155
6	2240491	6.205254517815	156
6	2257872	6.247916701596	157
6	2270270	6.282912709289	158
6	2283071	6.318620429346	159
6	2299027	6.359277068622	160
6	2314328	6.400462345788	161
6	2329458	6.442881954265	162
6	2344739	6.48015154976	163
6	2358977	6.524562073226	164
6	2372424	6.563316298039	165
6	2389040	6.605718498196	166
6	2405939	6.649217552209	167
6	2420015	6.687019769983	168
6	2434575	6.725146194252	169
6	2450413	6.768457383502	170
6	2467552	6.812864623208	171
6	2482956	6.855460544716	172
6	2495965	6.890288138477	173
6	2509029	6.925665190139	174
6	2524353	6.964389329478	175
6	2538677	7.004087990092	176
6	2554830	7.045047496247	177
6	2570730	7.088490285597	178
6	2584551	7.126087438343	179
6	2600891	7.168448951608	180
6	2613113	7.205193462951	181
6	2629365	7.248160597754	182
6	2641848	7.28588623769	183
6	2656870	7.328373896577	184
6	2675072	7.372550485428	185
6	2688301	7.411295609286	186
6	2704972	7.453079354813	187
6	2717711	7.492069507332	188
6	2729071	7.523362817192	189
6	2745138	7.56800174192	190
6	2760302	7.612407932202	191
6	2776643	7.655903085166	192
6	2792075	7.698484576499	193
6	2809945	7.742684284142	194
6	2823829	7.779857589156	195
6	2838568	7.82206432845	196
6	2851994	7.860771608381	197
6	2868776	7.906256189006	198
6	2882768	7.941996812814	199
6	2897819	7.980931666204	200
6	2912836	8.020172944446	201
6	2927311	8.060886589135	202
6	2942449	8.102169146474	203
6	2959836	8.145217781736	204
6	2973350	8.183683004039	205
6	2988129	8.219444851962	206
6	3000535	8.257718151887	207
6	3012373	8.293135252024	208
6	3028716	8.333683409376	209
6	3041898	8.373739494496	210
6	3058629	8.413961002106	211
6	3070836	8.450628907275	212
6	3083837	8.486479617603	213
6	3100389	8.527335287596	214
6	3114439	8.569923345351	215
6	3128292	8.607463582511	216
6	3143363	8.646758103788	217
6	3160168	8.691945911396	218
6	3176817	8.736755705017	219
6	3187612	8.772017670697	220
6	3205817	8.816424215017	221
6	3218913	8.855140888905	222
6	3230489	8.887305412556	223
6	3247226	8.931209819052	224
6	3260962	8.971047797329	225
6	3277240	9.011734639778	226
6	3291662	9.051787236154	227
6	3305978	9.094842186932	228
6	3320400	9.130427915507	229
6	3334536	9.174651642138	230
6	3346952	9.20901869701	231
6	3361873	9.252521427253	232
6	3373438	9.28651368578	233
6	3390608	9.333279277765	234
6	3403580	9.379337102248	235
6	3417087	9.419822159182	236
6	3433431	9.461468884775	237
6	3444708	9.499815271449	238
6	3459898	9.537707252925	239
6	3476232	9.583784487589	240
6	3489263	9.617865341813	241
6	3506291	9.662159851349	242
6	3517672	9.698319626898	243
6	3533934	9.737001274591	244
6	3549221	9.779556357717	245
6	3560848	9.815198390037	246
6	3576368	9.853866995189	247
6	3592632	9.899974145408	248
6	3605283	9.938026153166	249
6	3620444	9.976887502201	250
7	0	0	0
8	0	0	0
9	0	0	0
10	0	0	0
11	0	0	0
12	0	0	0
13	0	0	0
14	0	0	0
15	0	0	0
15	6	0	1
15	13367	0.030852711407	0
15	26752	0.09269341267	1
15	34917	0.111820971368	0
15	51357	0.170632903907	1
15	57609	0.184732689724	0
15	71043	0.228328922367	1
15	74816	0.237696799608	0
15	91602	0.282282259758	1
15	95739	0.292868447915	0
15	111866	0.332508469862	1
15	114902	0.340082687141	0
15	129126	0.382411593779	1
15	133840	0.393575345577	0
15	150108	0.440553598434	1
15	153998	0.449880719868	0
15	168998	0.489798785301	1
15	173023	0.499600179445	0
15	188436	0.546747564861	1
15	191489	0.554422989002	0
15	207651	0.599439927159	1
15	209338	0.604342268242	0
15	226963	0.64959874891	1
15	229769	0.656971735312	0
15	245307	0.697930629919	1
15	249953	0.708940698839	0
15	266666	0.756287829586	1
15	269387	0.763087546617	0
15	286175	0.80740221505	1
15	289139	0.815121351518	0
15	306656	0.857394675412	1
15	308347	0.861922952857	0
15	323147	0.904557722409	1
15	327835	0.915638109012	0
15	340637	0.957101103541	1
15	348095	0.974555176851	0
15	364053	1.021601663655	1
15	368641	1.032691130722	0
15	385408	1.082274947359	1
15	389277	1.091899835084	0
15	406546	1.142222577078	1
15	409907	1.150649515933	0
15	427538	1.199672905072	1
15	429909	1.205835879951	0
15	447521	1.248156925757	1
15	449622	1.253789350075	0
15	465111	1.297603720864	1
15	469422	1.307769920232	0
15	486898	1.353360118471	1
15	488590	1.358001459554	0
15	505723	1.402423753729	1
15	508529	1.409652643706	0
15	522132	1.448696114943	1
15	527890	1.462792966358	0
15	540231	1.501870345442	1
15	548757	1.522006725475	0
15	564721	1.567286348349	1
15	568805	1.577117475313	0
15	585486	1.625860682536	1
15	588814	1.634448692701	0
15	606050	1.677980283261	1
15	608259	1.683882366267	0
15	625016	1.724786739132	1
15	627018	1.729845532253	0
15	640036	1.767526732364	1
15	645477	1.780771449017	0
15	661374	1.825728643368	1
15	663147	1.83057167816	0
15	679221	1.872541459059	1
15	683016	1.881756649593	0
15	701283	1.930567568397	1
15	704957	1.939321520815	0
15	721313	1.984300958782	1
15	725875	1.995337098402	0
15	743152	2.042043993318	1
15	745439	2.04785696472	0
15	760810	2.091608430004	1
15	765130	2.101462521572	0
15	781623	2.145229420987	1
15	784348	2.152483026766	0
15	800448	2.197173384174	1
15	804459	2.206778230448	0
15	819398	2.250611606539	1
15	823021	2.259666305272	0
15	841251	2.312213517903	1
15	844849	2.321255547973	0
15	861801	2.36495891151	1
15	863753	2.369981445122	0
15	878722	2.412410322881	1
15	883337	2.423965948158	0
15	897049	2.463920120292	1
15	902450	2.477204957503	0
15	916023	2.519065082006	1
15	920713	2.529948119953	0
15	937039	2.576091709089	1
15	938795	2.580424191708	0
15	957600	2.626545039368	1
15	959287	2.630853380451	0
15	971180	2.668590737257	1
15	977917	2.684388968225	0
15	993059	2.731146332568	1
15	998689	2.744442190828	0
15	1012540	2.785978900007	1
15	1018593	2.801001174614	0
15	1034561	2.845207805186	1
15	1038151	2.854281796761	0
15	1053407	2.895523345479	1
15	1057672	2.906083738648	0
15	1075174	2.953312477711	1
15	1078037	2.960829009389	0
15	1092642	3.001769109383	1
15	1095626	3.009120152134	0
15	1111268	3.053706069211	1
15	1114798	3.062602697573	0
15	1130798	3.110761645619	1
15	1134568	3.119783565523	0
15	1149793	3.16652974582	1
15	1156300	3.181774145797	0
15	1172837	3.22827808258	1
15	1176185	3.236459946186	0
15	1192263	3.285306816149	1
15	1196646	3.296177069872	0
15	1212956	3.348087010735	1
15	1216527	3.356734268033	0
15	1232256	3.403410091476	1
15	1233907	3.408339432559	0
15	1251663	3.456502413187	1
15	1253833	3.462160056746	0
15	1271272	3.508621176221	1
15	1272963	3.513271517304	0
15	1287814	3.555338376382	1
15	1292508	3.566592395271	0
15	1309491	3.611478119057	1
15	1312639	3.619336987967	0
15	1328898	3.662276158522	1
15	1331869	3.669470565008	0
15	1347263	3.710336378812	1
15	1350829	3.719050849487	0
15	1363575	3.758010929974	1
15	1369289	3.771479082478	0
15	1386197	3.823591956082	1
15	1389805	3.832519790604	0
15	1407490	3.88397342455	1
15	1412838	3.896715291616	0
15	1429076	3.943881034316	1
15	1432513	3.952791150462	0
15	1449353	4.000244430231	1
15	1452962	4.008670188108	0
15	1470351	4.059828314124	1
15	1474204	4.069146128431	0
15	1491083	4.119055588953	1
15	1494087	4.126613896296	0
15	1511521	4.175002002166	1
15	1513192	4.179598343249	0
15	1530762	4.225939234548	1
15	1532464	4.230922646708	0
15	1547756	4.272621711132	1
15	1552683	4.284803085186	0
15	1569350	4.334858495374	1
15	1574448	4.347642521702	0
15	1589683	4.39116172524	1
15	1592586	4.398661195514	0
15	1609892	4.446343032127	1
15	1611575	4.450858302133	0
15	1626307	4.489861545991	1
15	1630707	4.500607621523	0
15	1646560	4.547020943828	1
15	1651277	4.558532435847	0
15	1664604	4.599475432829	1
15	1669298	4.610428043966	0
15	1685343	4.657916258023	1
15	1690048	4.6695666367	0
15	1705976	4.714063352726	1
15	1708270	4.719561536238	0
15	1725663	4.766990352824	1
15	1730178	4.777861344007	0
15	1747286	4.82457612007	1
15	1750624	4.83248625739	0
15	1765226	4.879251474705	1
15	1770698	4.892519329942	0
15	1784569	4.935041502716	1
15	1789710	4.947203542267	0
15	1803374	4.989431220188	1
15	1808205	5.001215597072	0
15	1825208	5.04924466908	1
15	1827727	5.055744096356	0
15	1844547	5.100206275364	1
15	1846232	5.104586616447	0
15	1861482	5.144341119389	1
15	1865999	5.15494057056	0
15	1878237	5.193540055408	1
15	1883547	5.206510958015	0
15	1898099	5.250965387543	1
15	1904889	5.267219805764	0
15	1921698	5.319496601629	1
15	1927556	5.333460678725	0
15	1944365	5.38548917055	1
15	1946012	5.390346511633	0
15	1963562	5.437382435088	1
15	1965857	5.443033621139	0
15	1982283	5.488997281581	1
15	1985012	5.496260754233	0
15	2001373	5.545243090103	1
15	2006261	5.556697492413	0
15	2022763	5.603555815	1
15	2026934	5.613610243998	0
15	2045004	5.662329217196	1
15	2047686	5.669249775944	0
15	2060855	5.707260771609	1
15	2067059	5.721863616088	0
15	2080414	5.762604512341	1
15	2087359	5.778959936309	0
15	2103060	5.827040443274	1
15	2106297	5.834674367819	0
15	2123178	5.881835002593	1
15	2126934	5.891029259428	0
15	2144433	5.937583968549	1
15	2146120	5.942252309632	0
15	2160871	5.98091916866	1
15	2165963	5.992952228195	0
15	2178765	6.03065196184	1
15	2184922	6.045190649633	0
15	2201244	6.095114117203	1
15	2205136	6.104727036239	0
15	2220379	6.149872142892	1
15	2223899	6.158223715491	0
15	2241095	6.206789131756	1
15	2245222	6.216913802205	0
15	2262134	6.262850824268	1
15	2266242	6.273076710751	0
15	2283123	6.319090454717	1
15	2285068	6.32466233752	0
15	2302355	6.37201357447	1
15	2304827	6.378002893022	0
15	2321517	6.423358797379	1
15	2323203	6.427667138462	0
15	2340562	6.469558558067	1
15	2343195	6.47651917113	0
15	2358992	6.524610529792	1
15	2363073	6.534831843265	0
15	2378970	6.581562116409	1
15	2383347	6.592508416472	0
15	2399504	6.632504060674	1
15	2402202	6.639390161073	0
15	2417685	6.681617346328	1
15	2422005	6.692060563385	0
15	2438688	6.737277893088	1
15	2443230	6.748382864717	0
15	2459457	6.793489102853	1
15	2462930	6.802244004776	0
15	2478866	6.845393045219	1
15	2480555	6.849908386302	0
15	2497173	6.893431302223	1
15	2500414	6.90139372965	0
15	2517831	6.948098820342	1
15	2520288	6.954141303396	0
15	2537934	7.002270585343	1
15	2541722	7.011565956588	0
15	2557852	7.053758357487	1
15	2559536	7.05839969857	0
15	2574776	7.097981254962	1
15	2579464	7.109034580145	0
15	2593623	7.15161828744	1
15	2598564	7.162927495482	0
15	2614335	7.210184784157	1
15	2618266	7.219672760625	0
15	2636998	7.274451460378	1
15	2639734	7.28124577974	0
15	2656526	7.327565917631	1
15	2659128	7.334262372581	0
15	2675556	7.373652662445	1
15	2678268	7.380908206583	0
15	2691974	7.420175209711	1
15	2697557	7.433697714403	0
15	2711284	7.476761823013	1
15	2718030	7.493205570796	0
15	2733823	7.541015516996	1
15	2739003	7.553767583635	0
15	2756902	7.604380088415	1
15	2761076	7.614753288655	0
15	2778625	7.661764207629	1
15	2780317	7.666270548712	0
15	2796660	7.710123720366	1
15	2799530	7.717173948398	0
15	2815240	7.759265257797	1
15	2818938	7.768417166744	0
15	2835038	7.813835329344	1
15	2839434	7.824482760894	0
15	2853932	7.86529023668	1
15	2859096	7.877616608872	0
15	2876192	7.925783156668	1
15	2879321	7.933811224719	0
15	2895135	7.974150303996	1
15	2898325	7.982415931055	0
15	2915346	8.026774345806	1
15	2917555	8.032311555222	0
15	2933333	8.075839532207	1
15	2936843	8.084246000149	0
15	2950662	8.121848293633	1
15	2954578	8.130666318574	0
15	2970355	8.177062088478	1
15	2975788	8.189671387511	0
15	2991203	8.23565392098	1
15	2994357	8.243240527297	0
15	3011066	8.290094167127	1
15	3014389	8.29864124548	0
15	3031506	8.340484784433	1
15	3034079	8.347138595731	0
15	3047314	8.387130427446	1
15	3052447	8.399109786515	0
15	3068771	8.445598583328	1
15	3074022	8.458151909315	0
15	3090451	8.5036376125	1
15	3094067	8.512576390244	0
15	3108671	8.555976608001	1
15	3111533	8.563065235928	0
15	3129808	8.611149550382	1
15	3131816	8.616291474298	0
15	3147707	8.657400577031	1
15	3151313	8.666970092172	0
15	3164233	8.706943709556	1
15	3169954	8.720948812722	0
15	3186051	8.768376363144	1
15	3188378	8.774029956073	0
15	3206006	8.822406838665	1
15	3207695	8.827120179748	0
15	3224186	8.868398154469	1
15	3226872	8.875488482803	0
15	3241476	8.917933822536	1
15	3247387	8.931725657073	0
15	3260313	8.969588813791	1
15	3266800	8.985297848878	0
15	3281141	9.025737257668	1
15	3284295	9.033480377274	0
15	3300421	9.081304270872	1
15	3302856	9.08766264205	0
15	3319965	9.129519004255	1
15	3322703	9.136546107658	0
15	3335387	9.176568656658	1
15	3342506	9.193736379056	0
15	3357659	9.24231566235	1
15	3364305	9.258258154212	0
15	3376477	9.300627213282	1
15	3383768	9.317829935777	0
15	3397242	9.364682835587	1
15	3403052	9.378214417905	0
15	3418788	9.427466946361	1
15	3422799	9.437047631811	0
15	3439379	9.487553853042	1
15	3442668	9.495218312737	0
15	3461122	9.544563706646	1
15	3464608	9.553116857538	0
15	3481718	9.598220129634	1
15	3483838	9.603624635683	0
15	3497251	9.641339304889	1
15	3504226	9.657539803109	0
15	3519183	9.702013493244	1
15	3523163	9.711235552963	0
15	3540739	9.75983311782	1
15	3543731	9.766819978648	0
15	3561509	9.816926757833	1
15	3564242	9.824020970607	0
15	3580898	9.867230662262	1
15	3582588	9.871890003345	0
15	3597693	9.911484003737	1
15	3601716	9.920757608122	0
15	3617235	9.969332563957	1
15	3622182	9.981566972547	0
16	0	0	0
17	0	0	0
18	0	0	0
19	0	0	0
19	7	0	1
19	13713	0.031690072745	0
19	27798	0.095104683912	1
19	38238	0.119807589076	0
19	51536	0.171109907151	1
19	57970	0.185460162642	0
19	75550	0.239347714464	1
19	81014	0.252357196511	0
19	96863	0.295950283501	1
19	99612	0.302608793745	0
19	116264	0.351177238678	1
19	119401	0.358944216087	0
19	136836	0.406107368469	1
19	141451	0.417448147364	0
19	155960	0.4567233987	1
19	158973	0.464075365397	0
19	176797	0.512077319932	1
19	180458	0.521125739916	0
19	196481	0.566608369025	1
19	200804	0.577028480976	0
19	217576	0.624358933874	1
19	221194	0.632778781903	0
19	240118	0.684922866739	1
19	242390	0.690940371548	0
19	259691	0.733742942285	1
19	262389	0.740637387628	0
19	278700	0.78517346152	1
19	282530	0.794223599289	0
19	297554	0.835463421629	1
19	301109	0.844051092713	0
19	316280	0.88766225947	1
19	322340	0.902665730972	0
19	338150	0.950919159637	1
19	343031	0.962671394407	0
19	359645	1.009143785257	1
19	361950	1.015191036417	0
19	379395	1.060160737795	1
19	381096	1.064955439463	0
19	398201	1.112849205128	1
19	401637	1.121116185618	0
19	416006	1.164308363846	1
19	422043	1.178117869868	0
19	438191	1.22548670179	1
19	441975	1.234518650693	0
19	457529	1.279213465758	1
19	459676	1.28505792973	0
19	476971	1.328354886283	1
19	479037	1.333976413536	0
19	495753	1.377305860187	1
19	498252	1.384186898958	0
19	512485	1.425169067216	1
19	517378	1.437476125463	0
19	534399	1.484624385239	1
19	537866	1.492751600975	0
19	554185	1.538943953998	1
19	557561	1.547484645845	0
19	573513	1.591077383729	1
19	577682	1.601129103117	0
19	595784	1.651142074744	1
19	599346	1.659569064328	0
19	616321	1.704555350246	1
19	620097	1.713376575233	0
19	637604	1.761487889044	1
19	640425	1.768492729192	0
19	656900	1.814119793852	1
19	660021	1.82223376138	0
19	676767	1.866110452852	1
19	679670	1.873544548217	0
19	694912	1.914733053488	1
19	699278	1.925421039621	0
19	713584	1.965975802724	1
19	717724	1.975831619413	0
19	733719	2.019029917908	1
19	738427	2.030478751189	0
19	756720	2.081295851595	1
19	758506	2.085893694895	0
19	776728	2.132471708263	1
19	778519	2.13740259012	0
19	795754	2.180204146777	1
19	797630	2.185262150761	0
19	813035	2.227355323453	1
19	817563	2.238067796096	0
19	832559	2.282783459696	1
19	836862	2.293263642514	0
19	850756	2.335738339568	1
19	856601	2.34981888759	0
19	871706	2.396053048292	1
19	877447	2.409479292344	0
19	892120	2.451900466498	1
19	897435	2.464881640922	0
19	914142	2.513938675017	1
19	916700	2.520652457603	0
19	933324	2.563229041506	1
19	935731	2.56973869118	0
19	953244	2.61480634251	1
19	955668	2.621191928158	0
19	970152	2.666401190684	1
19	976526	2.680927365525	0
19	991355	2.726892884056	1
19	995963	2.738115499876	0
19	1010448	2.780951238757	1
19	1017030	2.79702130621	0
19	1031236	2.83739706942	1
19	1034938	2.846041677737	0
19	1052805	2.894042277608	1
19	1055269	2.899941826892	0
19	1072965	2.947706608396	1
19	1075099	2.953104164675	0
19	1092905	3.002454262997	1
19	1096495	3.010999213363	0
19	1112708	3.057380030162	1
19	1118785	3.072143146064	0
19	1133846	3.117995307873	1
19	1137560	3.127040980203	0
19	1149921	3.166815744637	1
19	1157429	3.184310358828	0
19	1172658	3.22786409536	1
19	1175847	3.235702514389	0
19	1192086	3.284993969966	1
19	1195811	3.294168962617	0
19	1212211	3.346191071086	1
19	1216721	3.357117535547	0
19	1233979	3.40852585385	1
19	1236844	3.415434512556	0
19	1254424	3.463610341667	1
19	1257922	3.47209883561	0
19	1274083	3.515902979779	1
19	1276040	3.52131250282	0
19	1294738	3.571985072504	1
19	1299093	3.58250057414	0
19	1315115	3.62569322153	1
19	1318347	3.633391445746	0
19	1334697	3.679849510065	1
19	1339106	3.690405057884	0
19	1356695	3.741570021924	1
19	1359099	3.747522750597	0
19	1375965	3.796740057748	1
19	1379352	3.805161579861	0
19	1396548	3.854457361819	1
19	1401170	3.865694797979	0
19	1418621	3.916654298134	1
19	1423504	3.928972604578	0
19	1440392	3.976004098441	1
19	1445186	3.987345616327	0
19	1461371	4.033505987986	1
19	1463073	4.038156659698	0
19	1479803	4.082322041081	1
19	1484548	4.093561363144	0
19	1499408	4.139015977903	1
19	1505022	4.15238957588	0
19	1521115	4.200889786519	1
19	1523953	4.207855988301	0
19	1541073	4.255245102235	1
19	1543033	4.260367067509	0
19	1561167	4.310664646234	1
19	1562852	4.315207347902	0
19	1577879	4.35555744643	1
19	1582107	4.36592156086	0
19	1594857	4.404009405958	1
19	1599865	4.415996457799	0
19	1616135	4.465340005019	1
19	1619776	4.474267440979	0
19	1637642	4.524124690307	1
19	1640953	4.53214283743	0
19	1658627	4.578662728265	1
19	1660969	4.584244814905	0
19	1677672	4.630466600599	1
19	1681103	4.63915863743	0
19	1695915	4.683402111023	1
19	1700556	4.69471023676	0
19	1714423	4.738239696229	1
19	1720716	4.753368865263	0
19	1734365	4.793705339805	1
19	1740096	4.807156088137	0
19	1753314	4.850610480828	1
19	1759037	4.864289911389	0
19	1775628	4.912820403953	1
19	1778205	4.920018281047	0
19	1795557	4.96533516732	1
19	1797327	4.969927147413	0
19	1812773	5.012229892016	1
19	1816550	5.021283657426	0
19	1831159	5.064253932835	1
19	1835593	5.074525748714	0
19	1851134	5.1196121496	1
19	1855559	5.130205322819	0
19	1870973	5.176112833071	1
19	1872666	5.180394564695	0
19	1890412	5.228444283038	1
19	1894109	5.237529371527	0
19	1910163	5.280670029917	1
19	1911872	5.285356701629	0
19	1923361	5.323288010321	1
19	1932479	5.344958645686	0
19	1948683	5.397238698762	1
19	1953901	5.409446919512	0
19	1970183	5.460499841826	1
19	1973787	5.469385752616	0
19	1990401	5.518500889088	1
19	1994098	5.527682141265	0
19	2009914	5.569905926707	1
19	2011877	5.575082010331	0
19	2029193	5.622561342569	1
19	2031545	5.628759848636	0
19	2049004	5.675708618224	1
19	2050705	5.680440319892	0
19	2067528	5.722891166446	1
19	2070476	5.730186200506	0
19	2083633	5.770182514461	1
19	2089377	5.78370962737	0
19	2106117	5.834261003356	1
19	2111195	5.845959371761	0
19	2126530	5.889961888998	1
19	2130969	5.9008671996	0
19	2147062	5.944440951328	1
19	2150434	5.952597905349	0
19	2168446	5.999829308789	1
19	2172144	6.009045724888	0
19	2186654	6.049159654235	1
19	2190895	6.05924714742	0
19	2203776	6.10135792521	1
19	2210258	6.116338471468	0
19	2225266	6.161281639933	1
19	2229460	6.171213137194	0
19	2243214	6.212067314731	1
19	2247941	6.223511122443	0
19	2261658	6.261686153563	1
19	2265904	6.272268349413	0
19	2284462	6.323066385137	1
19	2288792	6.333707583511	0
19	2303029	6.373639641387	1
19	2307164	6.383572418656	0
19	2324344	6.430637524236	1
19	2328526	6.440779827454	0
19	2345742	6.492391523595	1
19	2349637	6.502413040925	0
19	2367428	6.550706458773	1
19	2369979	6.557349239509	0
19	2386344	6.599512486225	1
19	2389652	6.607536816267	0
19	2407133	6.65394433612	1
19	2408835	6.658577037788	0
19	2427003	6.706528972635	1
19	2431469	6.717562571848	0
19	2449052	6.765149712108	1
19	2452856	6.774377971613	0
19	2470546	6.823327382921	1
19	2474602	6.833515186902	0
19	2491307	6.878677894194	1
19	2493828	6.885317765711	0
19	2510406	6.929524501324	1
19	2513641	6.9378800359	0
19	2531254	6.98439416576	1
19	2533598	6.990597312643	0
19	2549275	7.029679784515	1
19	2552935	7.038771733419	0
19	2567974	7.08163212603	1
19	2574016	7.096386473866	0
19	2587772	7.138209206298	1
19	2592028	7.148293779208	0
19	2607507	7.191942642275	1
19	2610568	7.199195291985	0
19	2626748	7.241657540819	1
19	2629803	7.249460002298	0
19	2644198	7.291383276189	1
19	2649588	7.304058367878	0
19	2664082	7.346719219306	1
19	2667961	7.356123689746	0
19	2684389	7.401703283388	1
19	2687376	7.409103651741	0
19	2705373	7.454271943775	1
19	2707799	7.460493751881	0
19	2722877	7.504877464908	1
19	2727155	7.515031490636	0
19	2742714	7.562314158873	1
19	2747879	7.574866201354	0
19	2762811	7.618718470877	1
19	2767037	7.628571760021	0
19	2780880	7.66770412357	1
19	2784778	7.676427648337	0
19	2800828	7.720931117875	1
19	2802531	7.725491849499	0
19	2818566	7.767473740479	1
19	2822390	7.776432671934	0
19	2839165	7.823801556989	1
19	2842342	7.831838077487	0
19	2856949	7.872417598299	1
19	2861628	7.883605018532	0
19	2877255	7.928670334288	1
19	2881501	7.939045552678	0
19	2899641	7.988098915892	1
19	2903338	7.997057681242	0
19	2921725	8.047023244346	1
19	2924179	8.053166829836	0
19	2940743	8.098031026087	1
19	2944106	8.106350757122	0
19	2959545	8.144468768692	1
19	2963220	8.153005209312	0
19	2976956	8.192375650709	1
19	2981144	8.202714230179	0
19	2997718	8.251158436083	1
19	3004768	8.268301829133	0
19	3021224	8.316178976928	1
19	3025181	8.325474125167	0
19	3040595	8.370419031533	1
19	3043090	8.377155575132	0
19	3061057	8.426932609744	1
19	3062740	8.431331311412	0
19	3079045	8.47012127146	1
19	3081915	8.477387636767	0
19	3096039	8.517191971845	1
19	3101746	8.530553543015	0
19	3114964	8.571148968871	1
19	3120106	8.583310176055	0
19	3136791	8.630948056361	1
19	3140890	8.640902698124	0
19	3158789	8.688496309362	1
19	3161560	8.695721285172	0
19	3179320	8.743097616121	1
19	3181117	8.748237653983	0
19	3196783	8.794196573142	1
19	3201839	8.806548061508	0
19	3217255	8.85106610028	1
19	3221108	8.861020919798	0
19	3237760	8.909093887984	1
19	3241646	8.91830184786	0
19	3257829	8.963529011388	1
19	3262400	8.974267331906	0
19	3281398	9.026493179309	1
19	3286837	9.039490001679	0
19	3301297	9.08380707447	1
19	3306063	9.095104957751	0
19	3324023	9.144313348715	1
19	3325719	9.148793080339	0
19	3340803	9.189327711433	1
19	3345040	9.200315247499	0
19	3356033	9.238441869064	1
19	3362921	9.254936286503	0
19	3374363	9.295641836485	1
19	3380894	9.31104850432	0
19	3396537	9.362737930815	1
19	3399523	9.369913361546	0
19	3417161	9.422513215997	1
19	3418908	9.427839981533	0
19	3436460	9.477767650844	1
19	3438129	9.481923352512	0
19	3455673	9.526552625634	1
19	3458023	9.532929287757	0
19	3474517	9.579862641047	1
19	3477894	9.588417366736	0
19	3493783	9.633318192784	1
19	3499149	9.64590870576	0
19	3515152	9.691828352476	1
19	3517415	9.697784250649	0
19	3535096	9.746018451121	1
19	3537481	9.751880607669	0
19	3554328	9.799493930118	1
19	3557136	9.806727093625	0
19	3573974	9.847821536172	1
19	3576623	9.854558024656	0
19	3589930	9.893834526134	1
19	3596212	9.908050412918	0
19	3610293	9.95297418056	1
19	3612872	9.95919298581	0
20	0	0	0
21	0	0	0
22	0	0	0
23	0	0	0
23	8	0	1
23	12486	0.028954645202	0
23	24508	0.086397725466	1
23	26262	0.091661434665	0
23	43906	0.136866137792	1
23	45597	0.141354703119	0
23	58854	0.187458142385	1
23	65992	0.204166240506	0
23	80712	0.251715920406	1
23	86609	0.26550218225	0
23	102684	0.310045094393	1
23	105383	0.316959442533	0
23	122378	0.365945426304	1
23	125702	0.374325654683	0
23	142735	0.420749010414	1
23	144521	0.425904719613	0
23	161891	0.471227261704	1
23	163590	0.476084827031	0
23	179015	0.517236170271	1
23	182982	0.526727785033	0
23	199196	0.57307500641	1
23	204125	0.585223398815	0
23	217674	0.624585977084	1
23	221880	0.634341786611	0
23	237139	0.67713314986	1
23	238832	0.681936715187	0
23	255205	0.722787977143	1
23	259395	0.732876165469	0
23	275609	0.777474956948	1
23	278848	0.785619019734	0
23	295137	0.829440924051	1
23	298313	0.837387883908	0
23	313948	0.88190209225	1
23	319677	0.895862247292	0
23	336598	0.946536726295	1
23	338432	0.951828569156	0
23	355293	0.991796221961	1
23	357630	0.997817351199	0
23	374043	1.045014835463	1
23	378085	1.054996056017	0
23	391010	1.095806339476	1
23	396377	1.108757826074	0
23	410254	1.151326332849	1
23	414612	1.161286771636	0
23	432312	1.211540803918	1
23	436795	1.222052435699	0
23	451598	1.262948468313	1
23	454586	1.270276706843	0
23	470452	1.31029848127	1
23	472414	1.315536481542	0
23	489894	1.362385326963	1
23	492494	1.369411421275	0
23	509873	1.418081981211	1
23	511563	1.423002546538	0
23	529113	1.466162968938	1
23	531527	1.472450164012	0
23	544290	1.511769906394	1
23	551521	1.528298409598	0
23	566789	1.572340917789	1
23	570803	1.58219457454	0
23	586278	1.628017636208	1
23	590799	1.639455716606	0
23	607279	1.681394452804	1
23	610710	1.68997832783	0
23	628340	1.736125116736	1
23	631801	1.744568487487	0
23	648290	1.791790219187	1
23	651571	1.799733585951	0
23	668077	1.844300437371	1
23	670561	1.850707133224	0
23	687326	1.896341387939	1
23	689018	1.901018969575	0
23	707211	1.950103888901	1
23	709335	1.955687135144	0
23	727193	2.001290116513	1
23	728890	2.00590468184	0
23	744901	2.046568898135	1
23	748154	2.054237902445	0
23	764846	2.100732752046	1
23	768801	2.110314345272	0
23	786021	2.156509394977	1
23	787974	2.161517244838	0
23	803932	2.205399223381	1
23	807909	2.214883620966	0
23	822377	2.258058639643	1
23	828426	2.272957134919	0
23	842956	2.316566652056	1
23	847217	2.327206012371	0
23	863073	2.368316596858	1
23	867084	2.377590853841	0
23	883543	2.424391834423	1
23	886968	2.433054375479	0
23	902219	2.476606693446	1
23	906121	2.485641855519	0
23	918825	2.525701635246	1
23	923928	2.537064025032	0
23	938699	2.580202429844	1
23	944503	2.593518343024	0
23	960661	2.64326324673	1
23	963752	2.651315814924	0
23	980724	2.701279141749	1
23	984190	2.70984355641	0
23	1000788	2.756493453898	1
23	1002465	2.761342035534	0
23	1020159	2.805964389699	1
23	1021854	2.810560955026	0
23	1038802	2.855887855833	1
23	1042111	2.864340517574	0
23	1059625	2.910813662143	1
23	1061788	2.916381403834	0
23	1078974	2.962878109212	1
23	1081018	2.968328821322	0
23	1095400	3.008558049208	1
23	1100237	3.019873002927	0
23	1114517	3.06197540136	1
23	1120857	3.077205597696	0
23	1136875	3.125409970185	1
23	1140354	3.134215316317	0
23	1152978	3.174092649781	1
23	1161837	3.194651898996	0
23	1176398	3.236940720294	1
23	1181488	3.249203052676	0
23	1194141	3.290035514235	1
23	1201057	3.306555126075	0
23	1214739	3.352394866462	1
23	1221330	3.368158449944	0
23	1238780	3.421174447833	1
23	1240472	3.42583401316	0
23	1255717	3.466664970629	1
23	1259402	3.47552072208	0
23	1275784	3.520646819059	1
23	1279562	3.529995033927	0
23	1293647	3.569146430126	1
23	1296776	3.577050112344	0
23	1313320	3.62086900279	1
23	1316330	3.628796123279	0
23	1333188	3.675741113016	1
23	1334883	3.680265678343	0
23	1352418	3.72657604446	1
23	1355393	3.734439348259	0
23	1370154	3.7734806323	1
23	1374601	3.784819015123	0
23	1386461	3.824219542788	1
23	1391106	3.835487176414	0
23	1405593	3.878940739194	1
23	1408038	3.885306062866	0
23	1424195	3.930547087521	1
23	1427684	3.939191301639	0
23	1440832	3.977016505451	1
23	1446143	3.989525863712	0
23	1462878	4.037669576883	1
23	1467303	4.048825086269	0
23	1482936	4.089586340676	1
23	1486463	4.098101044163	0
23	1499165	4.138573920678	1
23	1506149	4.155007144373	0
23	1522780	4.204985370004	1
23	1529187	4.219926810048	0
23	1542307	4.258450737561	1
23	1546985	4.270670264593	0
23	1564132	4.322385433782	1
23	1566780	4.328929733554	0
23	1584098	4.377481107802	1
23	1586706	4.384403067347	0
23	1603926	4.427847025548	1
23	1605625	4.432533574566	0
23	1622210	4.480196920798	1
23	1626069	4.489382988743	0
23	1643117	4.538270907672	1
23	1649179	4.553533331153	0
23	1664751	4.599826062204	1
23	1670088	4.61224683505	0
23	1686865	4.661840387792	1
23	1690402	4.670545959358	0
23	1706418	4.715307990604	1
23	1710613	4.725647170418	0
23	1725256	4.766056322265	1
23	1728712	4.774457673075	0
23	1743418	4.814833476229	1
23	1747005	4.823833620802	0
23	1760098	4.867071952384	1
23	1767869	4.885660553108	0
23	1781907	4.928864941371	1
23	1788225	4.943808868146	0
23	1804083	4.991116364937	1
23	1809813	5.004985117811	0
23	1825736	5.05074413798	1
23	1830303	5.06223118102	0
23	1847344	5.107609987371	1
23	1849834	5.114466985498	0
23	1867325	5.161349081967	1
23	1869670	5.167948209506	0
23	1887036	5.214561908054	1
23	1888995	5.219814750878	0
23	1900879	5.257785910874	1
23	1908775	5.275980483488	0
23	1923341	5.323203868154	1
23	1930957	5.341372128433	0
23	1947204	5.393184348301	1
23	1949141	5.398459327459	0
23	1964620	5.440074243837	1
23	1968827	5.450311378492	0
23	1985520	5.497516176256	1
23	1987996	5.503904816302	0
23	2002405	5.547531955419	1
23	2007145	5.558687459913	0
23	2023501	5.605164464916	1
23	2026322	5.612273511858	0
23	2041634	5.653296218689	1
23	2044064	5.659765569637	0
23	2059440	5.703851544694	1
23	2064825	5.716498354056	0
23	2079470	5.760215088487	1
23	2085717	5.774973071579	0
23	2101511	5.822573382077	1
23	2103207	5.827313931095	0
23	2121401	5.877005258836	1
23	2124069	5.883998014648	0
23	2140832	5.925865377074	1
23	2143122	5.931836180513	0
23	2156516	5.970571268234	1
23	2161584	5.982416005374	0
23	2178803	6.030691491988	1
23	2184313	6.043764921833	0
23	2200523	6.093088162376	1
23	2203161	6.099973856173	0
23	2220326	6.149582441207	1
23	2223388	6.15714912607	0
23	2239880	6.20392707538	1
23	2242792	6.211153932037	0
23	2259622	6.256337437264	1
23	2261317	6.260781002591	0
23	2277160	6.300651734717	1
23	2280498	6.308526189695	0
23	2297636	6.356182343323	1
23	2301023	6.36436617447	0
23	2316312	6.40590611121	1
23	2320189	6.415693961011	0
23	2333884	6.454196653248	1
23	2338017	6.463732842869	0
23	2352138	6.508325310589	1
23	2358534	6.523562447828	0
23	2374668	6.57016378799	1
23	2376367	6.575102337008	0
23	2393912	6.618115383597	1
23	2395609	6.622675932615	0
23	2413076	6.669579320091	1
23	2415414	6.675471813996	0
23	2432749	6.720674227431	1
23	2435354	6.72735662132	0
23	2449638	6.766617213126	1
23	2453813	6.776558066691	0
23	2469296	6.819613754398	1
23	2471254	6.825113733556	0
23	2488453	6.871413535246	1
23	2490790	6.877534410711	0
23	2508794	6.925044830628	1
23	2510942	6.9308957919	0
23	2527399	6.972203394944	1
23	2529945	6.978816312492	0
23	2543905	7.016699838711	1
23	2547839	7.026394291963	0
23	2566031	7.077039887718	1
23	2570544	7.088090921847	0
23	2587401	7.137268332802	1
23	2591498	7.147131981429	0
23	2607736	7.192447141413	1
23	2611159	7.200613090344	0
23	2627981	7.244964987951	1
23	2632052	7.254965576976	0
23	2646195	7.296033812071	1
23	2651679	7.309015007014	0
23	2669029	7.358689706163	1
23	2673292	7.368421846668	0
23	2688401	7.411567974541	1
23	2693030	7.422568602282	0
23	2709256	7.471753740398	1
23	2713400	7.481891377558	0
23	2729164	7.529950196413	1
23	2733348	7.540019194126	0
23	2752164	7.591166450818	1
23	2753839	7.595429999836	0
23	2771397	7.642674128253	1
23	2773504	7.64839871681	0
23	2791216	7.69643574829	1
23	2793552	7.702476620231	0
23	2811073	7.748217046359	1
23	2812950	7.753328935057	0
23	2830373	7.802492121258	1
23	2833202	7.809679940109	0
23	2850517	7.857153017165	1
23	2856238	7.870813583155	0
23	2871989	7.914437264723	1
23	2874896	7.921413021125	0
23	2892377	7.966584719254	1
23	2894068	7.971469284581	0
23	2912317	8.01895603907	1
23	2914582	8.024906303868	0
23	2931883	8.071944333578	1
23	2934047	8.077504422955	0
23	2950986	8.12251514506	1
23	2954913	8.13141761905	0
23	2969406	8.174862442429	1
23	2975173	8.188136639062	0
23	2991334	8.236014272298	1
23	2994790	8.244250979404	0
23	3012273	8.292970695871	1
23	3016690	8.304205308889	0
23	3032447	8.343066342889	1
23	3036265	8.352157115194	0
23	3052420	8.399025513697	1
23	3057854	8.41235488445	0
23	3074437	8.459073007578	1
23	3078926	8.46986909109	0
23	3094886	8.514463157454	1
23	3099536	8.525399026848	0
23	3114694	8.570528358964	1
23	3120534	8.584200691342	0
23	3136175	8.6294531898	1
23	3138457	8.634965713053	0
23	3155585	8.678562661243	1
23	3157281	8.68345622657	0
23	3171906	8.725293896137	1
23	3178120	8.740179793278	0
23	3192089	8.782696860895	1
23	3197413	8.79585627616	0
23	3212149	8.838488831399	1
23	3216593	8.849598451506	0
23	3232469	8.896014390104	1
23	3235462	8.903608611297	0
23	3251677	8.944027106938	1
23	3253366	8.948812655956	0
23	3270804	8.995611500488	1
23	3272586	9.000458077606	0
23	3290120	9.04816266221	1
23	3293106	9.055693158262	0
23	3306799	9.096860188418	1
23	3311759	9.108334858407	0
23	3327395	9.157915042711	1
23	3332722	9.170472723448	0
23	3350609	9.224977431873	1
23	3352300	9.2293849972	0
23	3369180	9.270991823271	1
23	3371512	9.276979492901	0
23	3384560	9.319564603417	1
23	3391621	9.335788855205	0
23	3405845	9.384641180591	1
23	3410822	9.396569825773	0
23	3423215	9.438022007062	1
23	3430060	9.453968716482	0
23	3447397	9.506077520161	1
23	3453421	9.52090607314	0
23	3469503	9.567545338939	1
23	3473322	9.576810326964	0
23	3492405	9.629151852265	1
23	3494276	9.634461817776	0
23	3511665	9.682547831929	1
23	3513347	9.687216413565	0
23	3529679	9.726659521092	1
23	3533423	9.735788788771	0
23	3550852	9.783899241241	1
23	3552986	9.78966032187	0
23	3568296	9.833879521543	1
23	3572984	9.845397340135	0
23	3588140	9.889691789459	1
23	3594807	9.904850633047	0
23	3611544	9.956290556748	1
23	3617592	9.970212190248	0
24	0	0	0
25	0	0	0
26	0	0	0
27	0	0	0
27	9	0	1
27	14584	0.033552395364	0
27	26150	0.091308764321	1
27	33530	0.108591289179	0
27	47576	0.160799428523	1
27	49560	0.166055432801	0
27	67401	0.210797605655	1
27	69113	0.215556484399	0
27	82518	0.255557753948	1
27	87569	0.267782427107	0
27	104094	0.313837131475	1
27	108306	0.323493883457	0
27	123406	0.368596403684	1
27	127765	0.379010793726	0
27	144373	0.425504950522	1
27	147418	0.432972060518	0
27	164615	0.478726901132	1
[...]
81	1068077	2.93184526876	0.004604369335
81	1068860	2.933796308761	0.006555409336
81	1086279	2.981783944803	0.003135488512
81	1088066	2.985975136874	0.007326680583
81	1090011	2.990619648984	0.011971192693
81	1107065	3.043767328826	0.001983049761
81	1108825	3.04782749607	0.006043217005
81	1110287	3.051257354956	0.009473075891
81	1124160	3.09228981591	0.000973408395
81	1124677	3.09362550386	0.002309096345
81	1125185	3.094737184776	0.003420777261
81	1143819	3.142637741346	0.001894663068
81	1144508	3.144433693471	0.003690615193
81	1145355	3.146303768943	0.005560690665
81	1164033	3.200174225987	0.001298621306
81	1164557	3.201329906903	0.002454302222
81	1165172	3.202982458979	0.004106854298
81	1182888	3.25269589638	0.001939066496
81	1184082	3.255399331469	0.004642501585
81	1185178	3.258306177945	0.007549348061
81	1204164	3.313598654695	0.002763083749
81	1205471	3.316911058462	0.006075487516
81	1206436	3.319114357615	0.008278786669
81	1223918	3.374272792017	0.002904561455
81	1225400	3.377666514582	0.00629828402
81	1227441	3.382569651764	0.011201421202
81	1245795	3.438579038965	0.002781362437
81	1247287	3.441878892181	0.006081215653
81	1248598	3.444854657353	0.009056980825
81	1263425	3.489495455886	0.001090414057
81	1264298	3.491672563394	0.003267521565
81	1266152	3.495792653716	0.007387611887
81	1283235	3.54383201255	0.000901408395
81	1284004	3.545702019286	0.002771415131
81	1285044	3.548473467986	0.005542863831
81	1302424	3.59141298016	0.000937408395
81	1302862	3.5925133907	0.002037818935
81	1303477	3.594103084312	0.003627512547
81	1321638	3.641013983247	0.001018408395
81	1322252	3.642530535323	0.002534960471
81	1322691	3.643811945863	0.003816371011
81	1341747	3.696407780226	0.001010414057
81	1342705	3.698601949809	0.00320458364
81	1343761	3.701253304306	0.005855938137
81	1362114	3.754664623916	0.002134097313
81	1363166	3.75706493108	0.004534404477
81	1364478	3.759991759121	0.007461232518
81	1379772	3.806214171151	0.001936018664
81	1382555	3.8126638552	0.008385702713
81	1384012	3.816030536066	0.011752383579
81	1400306	3.863817505143	0.001942844197
81	1401610	3.86661545606	0.004740795114
81	1403250	3.870445356341	0.008570695395
81	1417448	3.913886401446	0.001009408395
81	1417965	3.915068953522	0.002191960471
81	1418473	3.916315499936	0.003438506885
81	1437918	3.9661504052	0.001623616558
81	1438447	3.967494951614	0.002968162972
81	1438969	3.96891263253	0.004385843888
81	1457082	4.019157434789	0.000874414057
81	1457610	4.020339981203	0.002056960471
81	1458133	4.021802662119	0.003519641387
81	1476787	4.075253360295	0.002512464338
81	1478099	4.078204935813	0.005464039856
81	1479726	4.08216683323	0.009425937273
81	1498013	4.135875556404	0.001477721519
81	1498887	4.137952739313	0.003554904428
81	1500122	4.140851469734	0.006453634849
81	1516567	4.187976992787	0.001281755384
81	1517767	4.190872485599	0.004177248196
81	1518553	4.192781350799	0.006086113396
81	1537024	4.241670717049	0.001284624095
81	1537904	4.243768852625	0.003382759671
81	1538936	4.246323902873	0.005937809919
81	1557276	4.295679872858	0.002349952341
81	1558157	4.297728919893	0.004398999376
81	1559178	4.300235445978	0.006905525461
81	1578508	4.356999105811	0.00270557652
81	1579995	4.360449118238	0.006155588947
81	1581311	4.363558731287	0.009265201996
81	1600127	4.416713790441	0.001975018664
81	1601835	4.420573717643	0.005834945866
81	1603017	4.423165890558	0.008427118781
81	1621438	4.478369528676	0.001664819773
81	1622231	4.480219622342	0.003514913439
81	1623280	4.482732955697	0.006028246794
81	1638185	4.525454097087	0.001281702661
81	1639231	4.527981496747	0.003809102321
81	1640335	4.530527996129	0.006355601703
81	1657329	4.573821513765	0.000847408395
81	1657766	4.574885924305	0.001911818935
81	1658378	4.576430612255	0.003456506885
81	1677196	4.62918661794	0.001575004591
81	1678661	4.63309979224	0.005488178891
81	1680046	4.636228519253	0.008616905904
81	1697320	4.686641621861	0.002578410437
81	1698812	4.690118235857	0.006055024433
81	1699512	4.692011935001	0.007948723577
81	1718105	4.74722129317	0.003104303962
81	1719662	4.750913282921	0.006796293713
81	1720980	4.754019153116	0.009902163908
81	1735481	4.796585338187	0.001727873302
81	1736686	4.79926191254	0.004404447655
81	1737918	4.802126379468	0.007268914583
81	1754556	4.853640890989	0.002618228085
81	1755500	4.855876248965	0.004853586061
81	1757307	4.860205882788	0.009183219884
81	1773741	4.908014624843	0.000856408395
81	1774086	4.908816900881	0.001658684433
81	1774766	4.910605717671	0.003447501223
81	1793729	4.960640322438	0.000730414057
81	1794338	4.962103010388	0.002193102007
81	1795234	4.964440866823	0.004530958442
81	1814185	5.015494565646	0.001384931353
81	1815063	5.017539795316	0.003430161023
81	1815933	5.019803944965	0.005694310672
81	1834982	5.073035862624	0.001225702661
81	1836114	5.075744436751	0.003934276788
81	1837679	5.079340232752	0.007530072789
81	1856171	5.131704028246	0.002675470401
81	1857744	5.135459006712	0.006430448867
81	1858888	5.138104590287	0.009076032442
81	1875595	5.187768848177	0.000955408395
81	1876132	5.188834400253	0.002020960471
81	1877384	5.191500748789	0.004687309007
81	1894532	5.238531041336	0.001311814111
81	1896012	5.241845846842	0.004626619617
81	1896713	5.243579545986	0.006360318761
81	1915482	5.29475133324	0.000937414057
81	1916095	5.296384885316	0.002570966133
81	1916531	5.297540295856	0.003726376673
81	1935490	5.352669188752	0.002303186061
81	1936366	5.354710029432	0.004344026741
81	1936802	5.355793439972	0.005427437281
81	1956436	5.415365894858	0.002612353781
81	1958279	5.419827036466	0.007073495389
81	1960164	5.424138464051	0.011384922974
81	1974476	5.471181740985	0.001597844067
81	1975698	5.473980459813	0.004396562895
81	1977188	5.477365241649	0.007781344731
81	1993834	5.527150741832	0.001199691467
81	1995573	5.531141881773	0.005190831408
81	1996782	5.53381716823	0.007866117865
81	2014633	5.582202166813	0.001199579983
81	2016169	5.585998474599	0.004995887769
81	2017383	5.589223622871	0.008221036041
81	2035538	5.638590211533	0.001387863055
81	2037017	5.641940189829	0.004737841351
81	2038147	5.644468280472	0.007265931994
81	2055725	5.694900916373	0.001839993879
81	2057270	5.698587651913	0.005526729419
81	2058755	5.702414284432	0.009353361938
81	2073501	5.742875882843	0.000766408395
81	2074104	5.744410576455	0.002301102007
81	2074530	5.745529986995	0.003420512547
81	2092873	5.791952654485	0.000955408395
81	2093383	5.793291216685	0.002293970595
81	2094475	5.795883159308	0.004885913218
81	2113466	5.85153743035	0.001677838535
81	2113995	5.852746982426	0.002887390611
81	2114519	5.854281663342	0.004422071527
81	2131846	5.903181299549	0.001989955647
81	2132925	5.905808745526	0.004617401624
81	2135479	5.912955503766	0.011764159864
81	2152697	5.957797868159	0.001641901552
81	2153225	5.958899420235	0.002743453628
81	2153907	5.960489164366	0.004333197759
81	2170751	6.005841127088	0.001464691467
81	2171711	6.007963166659	0.003586731038
81	2172843	6.010810578885	0.006434143264
81	2190451	6.058182576495	0.001415702661
81	2191674	6.061147163318	0.004380289484
81	2192887	6.064122684682	0.007355810848
81	2212609	6.122041040499	0.002755182363
81	2214673	6.126803010609	0.007517152473
81	2216508	6.131093242242	0.011807384106
81	2232741	6.179089483782	0.001724827627
81	2233971	6.181872072124	0.004507415969
81	2235170	6.184582819453	0.007218163298
81	2252949	6.23611206781	0.002499034643
81	2254260	6.23930248278	0.005689449613
81	2255228	6.241827478804	0.008214445637
81	2271578	6.286479905906	0.000874408395
81	2272192	6.288113593856	0.002508096345
81	2272630	6.289449004396	0.003843506885
81	2290536	6.33798991313	0.001461950115
81	2291413	6.340067081541	0.003539118526
81	2291941	6.341574663669	0.005046700654
81	2309958	6.3902696506	0.000874414057
81	2311096	6.392783863791	0.003388627248
81	2311888	6.394720728991	0.005325492448
81	2329894	6.444052136375	0.002722132801
81	2332157	6.449754817592	0.008424814018
81	2332946	6.451789723091	0.010459719517
81	2347826	6.497994778665	0.001555819773
81	2348859	6.500435895383	0.003996936491
81	2349900	6.502982323246	0.006543364354
81	2366074	6.544177322889	0.000865408395
81	2366512	6.545286733429	0.001974818935
81	2367124	6.546885555881	0.003573641387
81	2386021	6.598663783109	0.001632649417
81	2386729	6.600397729707	0.003366596015
81	2387426	6.601997540431	0.004966406739
81	2405678	6.648619182243	0.00196679617
81	2406275	6.650116592783	0.00346420671
81	2406887	6.651751409573	0.0050990235
81	2425002	6.699974498634	0.000973408395
81	2425615	6.70162605071	0.002624960471
81	2426051	6.70278146125	0.003780371011
81	2442887	6.747475544173	0.001590697129
81	2443597	6.749059261952	0.003174414908
81	2445384	6.753331049276	0.007446202232
81	2463617	6.803728771873	0.002784332132
81	2465197	6.807219726736	0.006275286995
81	2466383	6.810019300284	0.009074860543
81	2484171	6.858843414776	0.000928408395
81	2484784	6.860333102726	0.002418096345
81	2485580	6.862357140878	0.004442134497
81	2505193	6.912552298911	0.001939892917
81	2506501	6.915836748444	0.00522434245
81	2507462	6.918093926768	0.007481520774
81	2526969	6.971208039607	0.001027408395
81	2527503	6.972444591683	0.002263960471
81	2528460	6.97479477107	0.004614139858
81	2548349	7.027563806494	0.002355176703
81	2550492	7.032395847172	0.007187217381
81	2551612	7.03525044375	0.010041813959
81	2566152	7.077370934495	0.000964414057
81	2566942	7.079105932967	0.002699412529
81	2567994	7.081643235093	0.005236714655
81	2586114	7.130197786654	0.000919414057
81	2586635	7.131497333068	0.002218960471
81	2587143	7.132843013984	0.003564641387
81	2605419	7.17954220813	0.00189676748
81	2606108	7.181275040706	0.003629600056
81	2607204	7.183902924324	0.006257483674
81	2625450	7.236959641161	0.001109555593
81	2625979	7.238250187575	0.002400102007
81	2626500	7.239577739651	0.003727654083
81	2647658	7.299478476527	0.002476335791
81	2648973	7.302502397737	0.005500257001
81	2650368	7.305904425282	0.008902284546
81	2665862	7.351105984819	0.001401691467
81	2666472	7.352517734284	0.002813440932
81	2667609	7.35517722123	0.005472927878
81	2684274	7.401386018043	0.001045408395
81	2684712	7.402432428583	0.002091818935
81	2685739	7.404846874404	0.004506264756
81	2703530	7.44974461549	0.000919414057
81	2704221	7.45143250525	0.002607303817
81	2705227	7.453951260885	0.005126059452
81	2724614	7.508787092992	0.001809999962
81	2725406	7.510519075208	0.003541982178
81	2726277	7.512721243619	0.005744150589
81	2744877	7.567439371954	0.00221777738
81	2746163	7.570408752399	0.005187157825
81	2747259	7.573134488893	0.007912894319
81	2765023	7.623864267316	0.001374819773
81	2765814	7.625602378372	0.003112930829
81	2766596	7.627408219052	0.004918771509
81	2785296	7.677619212228	0.001637708193
81	2786440	7.680327522175	0.00434601814
81	2787309	7.682476690586	0.006495186551
81	2806928	7.735856799336	0.001730827627
81	2807981	7.738186171844	0.004060200135
81	2809007	7.740524119294	0.006398147585
81	2828534	7.794843760162	0.001745952789
81	2829586	7.797435128666	0.004337321293
81	2830109	7.798780680742	0.005682873369
81	2847850	7.846997478569	0.001627947739
81	2848812	7.849272444541	0.003902913711
81	2849339	7.850744125457	0.005374594627
81	2868944	7.906799088044	0.001614414057
81	2869380	7.907863498584	0.002678824597
81	2870171	7.909608366997	0.00442369301
81	2888100	7.954599860799	0.001072414057
81	2888633	7.956034412875	0.002506966133
81	2889332	7.957679417162	0.00415197042
81	2907440	8.006880725707	0.001308727181
81	2908126	8.008715590907	0.003143592381
81	2909266	8.011308073472	0.005736074946
81	2929060	8.065533261616	0.001275549931
81	2930459	8.068720199613	0.004462487928
81	2931506	8.071113506777	0.006855795092
81	2950122	8.120518815819	0.001708721519
81	2950648	8.121845362233	0.003035267933
81	2951706	8.124196619656	0.005386525356
81	2969426	8.174892830723	0.000820414057
81	2970375	8.177114897566	0.0030424809
81	2972322	8.181324678215	0.007252261549
81	2989915	8.228208427624	0.001072414057
81	2990528	8.229779115574	0.002643102007
81	2990954	8.230970526114	0.003834512547
81	3009727	8.280659148057	0.000856414057
81	3010258	8.282012700133	0.002209966133
81	3010780	8.283448246547	0.003645512547
81	3029483	8.335332379223	0.002616545831
81	3030437	8.337716471194	0.005000637802
81	3031360	8.340216135574	0.007500302182
81	3047729	8.388096147005	0.001631667771
81	3048950	8.390891482925	0.004427003691
81	3050352	8.394221214318	0.007756735084
81	3067036	8.441650743888	0.000964585645
81	3068176	8.444276932459	0.003590774216
81	3069471	8.44719437379	0.006508215547
81	3088456	8.49775453484	0.002018048703
81	3089330	8.499718611927	0.00398212579
81	3090206	8.501930613001	0.006194126864
81	3107870	8.554181367057	0.001656050552
81	3108914	8.556547566279	0.004022249774
81	3109876	8.558780659534	0.006255343029
81	3126002	8.6017058105	0.001432595892
81	3127595	8.605587794971	0.005314580363
81	3128811	8.608773842006	0.008500627398
81	3146013	8.653224912368	0.001793878964
81	3147067	8.655779083658	0.004348050254
81	3148214	8.658567535792	0.007136502388
81	3164987	8.708837271159	0.001896901711
81	3166361	8.712092093927	0.005151724479
81	3167985	8.716092214304	0.009151844856
81	3184115	8.759283701406	0.000892414057
81	3184643	8.760565253482	0.002173966133
81	3185159	8.761712799896	0.003321512547
81	3204022	8.811971605906	0.001009408395
81	3204461	8.813099016446	0.002136818935
81	3205559	8.815771845051	0.00480964754
81	3223899	8.867799533438	0.000919408395
81	3224339	8.868773943978	0.001893818935
81	3225476	8.871396356741	0.004516231698
81	3242249	8.919620800741	0.00170211993
81	3244087	8.923990868465	0.006072187654
81	3244963	8.926079755257	0.008161074446
81	3262120	8.973729950229	0.003027526383
81	3263590	8.976999677712	0.006297253866
81	3265330	8.981628424312	0.010926000466
81	3279871	9.022262402103	0.001000414057
81	3280308	9.023326812643	0.002064824597
81	3280912	9.024943506255	0.003681518209
81	3298356	9.068281052769	0.001675105037
81	3299405	9.070741100771	0.004135153039
81	3300104	9.072339783671	0.005733835939
81	3317016	9.120882252962	0.002069963827
81	3318068	9.123298252754	0.004485963619
81	3319116	9.125691632296	0.006879343161
81	3336923	9.180133121543	0.004121716047
81	3338858	9.184780418418	0.008769012922
81	3340254	9.188062962526	0.01205155703
81	3357366	9.241753897008	0.002463285729
81	3359376	9.246305947908	0.007015336629
81	3361613	9.251887057287	0.012596446008
81	3382728	9.315080597134	0.002992431216
81	3384316	9.319021597806	0.006933431888
81	3387080	9.325377901612	0.013289735694
81	3405502	9.38398797736	0.001696697129
81	3406906	9.387121449093	0.004830168862
81	3408291	9.390479017678	0.008187737447
81	3424731	9.441483108725	0.002353432643
81	3426056	9.444359605208	0.005229929126
81	3427665	9.448404395055	0.009274718973
81	3444877	9.500376170487	0.001479507881
81	3445931	9.502751342926	0.00385468032
81	3447159	9.505531205196	0.00663454259
81	3462199	9.547075221074	0.001447744043
81	3463235	9.54953041476	0.003902937729
81	3464002	9.551475224943	0.005847747912
81	3480872	9.596169805909	0.000820408395
81	3481401	9.597586357985	0.002236960471
81	3482007	9.599059003885	0.003709606371
81	3499764	9.647461381231	0.002864336528
81	3501222	9.650682413818	0.006085369115
81	3503103	9.654953342469	0.010356297766
81	3521601	9.707668781428	0.000986414057
81	3522470	9.709529791528	0.002847424157
81	3523350	9.711595737585	0.004913370214
81	3539707	9.757422647626	0.001821844197
81	3540059	9.758098923664	0.002498120235
81	3540759	9.759842610242	0.004241806813
81	3559479	9.812089793477	0.003497734702
81	3560592	9.814699020071	0.006106961296
81	3561273	9.816360572147	0.007768513372
81	3579592	9.861887434028	0.000820408395
81	3580122	9.863133121978	0.002066096345
81	3580644	9.864586674054	0.003519648421
81	3597530	9.911134038127	0.001543697129
81	3599274	9.914972135644	0.005381794646
81	3600502	9.917825504807	0.008235163809
81	3616983	9.968776306499	0.001623931353
81	3618476	9.972065395581	0.004913020435
81	3620784	9.977877611858	0.010725236712
82	1437169	3.964277020589	-198816.28167718
82	1481396	4.064277020589	240000
82	1511133	4.164277020589	240000
82	1557195	4.264277020589	360000
82	1584037	4.364277020589	240000
82	1632160	4.464277020589	360000
82	1659402	4.564277020589	240000
82	1701488	4.664277020589	360000
82	1727765	4.764277020589	240000
82	1770013	4.864277020589	360000
82	1795407	4.964277020589	240000
82	1838766	5.064277020589	360000
82	1869068	5.164277020589	240000
82	1914003	5.264277020589	360000
82	1941751	5.364277020589	240000
82	1980736	5.464277020589	360000
82	2022842	5.564277020589	360000
82	2051362	5.664277020589	240000
82	2095473	5.764277020589	360000
82	2122613	5.864277020589	240000
82	2167860	5.964277020589	360000
82	2197472	6.064277020589	240000
82	2227450	6.164277020589	240000
82	2270271	6.264277020589	360000
82	2314329	6.364277020589	360000
82	2344740	6.464277020589	240000
82	2389041	6.564277020589	360000
82	2420016	6.664277020589	240000
82	2450414	6.764277020589	240000
82	2495966	6.864277020589	360000
82	2524354	6.964277020589	240000
82	2570731	7.064277020589	360000
82	2600892	7.164277020589	240000
82	2641849	7.264277020589	360000
82	2675073	7.364277020589	240000
82	2717712	7.464277020589	360000
82	2745139	7.564277020589	240000
82	2792076	7.664277020589	360000
82	2823830	7.764277020589	240000
82	2868777	7.864277020589	360000
82	2897820	7.964277020589	240000
82	2942450	8.064277020589	360000
82	2973351	8.164277020589	240000
82	3012374	8.264277020589	360000
82	3041899	8.364277020589	240000
82	3083838	8.464277020589	360000
82	3114440	8.564277020589	240000
82	3160169	8.664277020589	360000
82	3187613	8.764277020589	240000
82	3230490	8.864277020589	360000
82	3260963	8.964277020589	240000
82	3305979	9.064277020589	360000
82	3334537	9.164277020589	240000
82	3373439	9.264277020589	360000
82	3403581	9.364277020589	240000
82	3444709	9.464277020589	360000
82	3476233	9.564277020589	240000
82	3517673	9.664277020589	360000
82	3549222	9.764277020589	240000
82	3592633	9.864277020589	360000
82	3620445	9.964277020589	240000
82	3628411	10	335918.22960615
83	1437748	3.965679430937	-198862.48770942
83	1479901	4.065679430937	240000
83	1521061	4.165679430937	360000
83	1550857	4.265679430937	240000
83	1590059	4.365679430937	360000
83	1617855	4.465679430937	240000
83	1662568	4.565679430937	360000
83	1702915	4.665679430937	360000
83	1732537	4.765679430937	240000
83	1764284	4.865679430937	240000
83	1807345	4.965679430937	360000
83	1833849	5.065679430937	240000
83	1877639	5.165679430937	360000
83	1907734	5.265679430937	240000
83	1944295	5.365679430937	360000
83	1989769	5.465679430937	360000
83	2016602	5.565679430937	240000
83	2046910	5.665679430937	240000
83	2094735	5.765679430937	360000
83	2121333	5.865679430937	240000
83	2164044	5.965679430937	360000
83	2193817	6.065679430937	240000
83	2237304	6.165679430937	360000
83	2268647	6.265679430937	240000
83	2313251	6.365679430937	360000
83	2341713	6.465679430937	240000
83	2384024	6.565679430937	360000
83	2414113	6.665679430937	240000
83	2459373	6.765679430937	360000
83	2489838	6.865679430937	240000
83	2533160	6.965679430937	360000
83	2563442	7.065679430937	240000
83	2607037	7.165679430937	360000
83	2645379	7.265679430937	360000
83	2675822	7.365679430937	240000
83	2719741	7.465679430937	360000
83	2747175	7.565679430937	240000
83	2791034	7.665679430937	360000
83	2821869	7.765679430937	240000
83	2864517	7.865679430937	360000
83	2895775	7.965679430937	240000
83	2939909	8.065679430937	360000
83	2972073	8.165679430937	240000
83	3005358	8.265679430937	240000
83	3045540	8.365679430937	360000
83	3087424	8.465679430937	360000
83	3114769	8.565679430937	240000
83	3159586	8.665679430937	360000
83	3201226	8.765679430937	360000
83	3229046	8.865679430937	240000
83	3264193	8.965679430937	240000
83	3307237	9.065679430937	360000
83	3336840	9.165679430937	240000
83	3374892	9.265679430937	360000
83	3401014	9.365679430937	240000
83	3441987	9.465679430937	360000
83	3471489	9.565679430937	240000
83	3515191	9.665679430937	360000
83	3545949	9.765679430937	240000
83	3586585	9.865679430937	360000
83	3627836	9.965679430937	360000
83	3628411	10	349644.55216265

