version 3
run MixedTCP2UDP6-0-20241031-17:59:50-14592
attr configname MixedTCP2UDP6
attr datetime 20241031-17:59:50
attr datetimef 20241031-175950
attr experiment MixedTCP2UDP6
attr inifile omnetpp.ini
attr iterationvars ""
attr iterationvarsd ""
attr iterationvarsf ""
attr measurement ""
attr network MixedWLAN
attr processid 14592
attr repetition 0
attr replication #0
attr resultdir results
attr runnumber 0
attr seedset 0
config image-path ../../inet4.5/images
config **.numHostsTCP 3
config **.numHostsUDP 7
config network MixedWLAN
config sim-time-limit 10s
config **.mac.**.vector-recording false
config **.mac.**.bin-recording false
config **.tcp.**.vector-recording false
config **.tcp.**.bin-recording false
config **.radio.**.vector-recording false
config **.radio.**.bin-recording false
config **.constraintAreaMinX 0m
config **.constraintAreaMinY 0m
config **.constraintAreaMinZ 0m
config **.constraintAreaMaxX 50m
config **.constraintAreaMaxY 50m
config **.constraintAreaMaxZ 0m
config **.ap.wlan[*].address "\"10:00:00:00:00:00\""
config **.*host*.**.mgmt.accessPointAddress "\"10:00:00:00:00:00\""
config **.numApps 1
config **.udphost[0].app[*].typename UdpEchoApp
config **.udphost[0].app[*].localPort 3088
config **.udphost[*].app[*].typename UdpBasicApp
config **.udphost[*].app[*].destAddresses "\"udphost[0]\""
config **.udphost[*].app[*].messageLength 1500B
config **.udphost[*].app[*].sendInterval "40ms + uniform(-5ms, 5ms)"
config **.udphost[*].app[*].destPort 3088
config **.udphost[*].app[*].startTime 0s
config **.udphost[*].app[*].stopTime -1s
config **.tcphost[0].numApps 1
config **.tcphost[0].app[*].typename TcpGenericServerApp
config **.tcphost[0].app[0].localPort 1000
config **.tcphost[0].app[0].active true
config **.tcphost[*].numApps 1
config **.tcphost[*].app[*].typename TcpBasicClientApp
config **.tcphost[*].app[0].active true
config **.tcphost[*].app[0].connectAddress "\"tcphost[0]\""
config **.tcphost[*].app[0].connectPort 1000
config **.tcphost[*].app[0].startTime 0s
config **.tcphost[*].app[0].stopTime -1s
config **.tcphost[*].app[0].thinkTime 0s
config **.tcphost[*].app[0].idleInterval "40ms + uniform(-5ms, 5ms)"
config **.tcphost[*].app[0].reconnectInterval 0s
config **.tcphost[*].app[0].numRequestsPerSession 1
config **.tcphost[*].app[0].requestLength 1500B
config **.tcphost[*].app[0].replyLength 1500B
config **.wlan[*].bitrate 433.3Mbps
config **.wlan[*].mac.dcf.channelAccess.pendingQueue.packetCapacity 40
config **.wlan[*].mac.dcf.channelAccess.cwMin 20
config **.bandName "\"5 GHz (20 MHz)\""
config **.opMode "\"ac\""
config **.wlan[*].radio.antenna.numAntennas 8
config **.wlan[*].radio.transmitter.power 10mW
config **.wlan[*].radio.transmitter.headerLength 192b
config **.wlan[*].radio.transmitter.centerFrequency 5GHz
config **.wlan[*].radio.receiver.sensitivity -85dBm
config **.wlan[*].radio.receiver.snirThreshold 4dB

vector 0 MixedWLAN.udphost[0].udp passedUpPk:vector(count) ETV
attr interpolationmode none
attr recordingmode vector(count)
attr source packetSentToUpper
attr title "packets passed up, count"
vector 1 MixedWLAN.udphost[0].udp droppedPkWrongPort:vector(count) ETV
attr interpolationmode none
attr recordingmode vector(count)
attr source packetDropReasonIsNoPortFound(packetDropped)
attr title "packets dropped (wrong port), count"
vector 2 MixedWLAN.udphost[0].udp droppedPkBadChecksum:vector(count) ETV
attr interpolationmode none
attr recordingmode vector(count)
attr source packetDropReasonIsIncorrectlyReceived(packetDropped)
attr title "packets dropped (checksum error), count"
vector 3 MixedWLAN.udphost[1].udp passedUpPk:vector(count) ETV
attr interpolationmode none
attr recordingmode vector(count)
attr source packetSentToUpper
attr title "packets passed up, count"
vector 4 MixedWLAN.udphost[1].udp droppedPkWrongPort:vector(count) ETV
attr interpolationmode none
attr recordingmode vector(count)
attr source packetDropReasonIsNoPortFound(packetDropped)
attr title "packets dropped (wrong port), count"
vector 5 MixedWLAN.udphost[1].udp droppedPkBadChecksum:vector(count) ETV
attr interpolationmode none
attr recordingmode vector(count)
attr source packetDropReasonIsIncorrectlyReceived(packetDropped)
attr title "packets dropped (checksum error), count"
vector 6 MixedWLAN.udphost[2].udp passedUpPk:vector(count) ETV
attr interpolationmode none
attr recordingmode vector(count)
attr source packetSentToUpper
attr title "packets passed up, count"
vector 7 MixedWLAN.udphost[2].udp droppedPkWrongPort:vector(count) ETV
attr interpolationmode none
attr recordingmode vector(count)
attr source packetDropReasonIsNoPortFound(packetDropped)
attr title "packets dropped (wrong port), count"
vector 8 MixedWLAN.udphost[2].udp droppedPkBadChecksum:vector(count) ETV
attr interpolationmode none
attr recordingmode vector(count)
attr source packetDropReasonIsIncorrectlyReceived(packetDropped)
attr title "packets dropped (checksum error), count"
vector 9 MixedWLAN.udphost[3].udp passedUpPk:vector(count) ETV
attr interpolationmode none
attr recordingmode vector(count)
attr source packetSentToUpper
attr title "packets passed up, count"
vector 10 MixedWLAN.udphost[3].udp droppedPkWrongPort:vector(count) ETV
attr interpolationmode none
attr recordingmode vector(count)
attr source packetDropReasonIsNoPortFound(packetDropped)
attr title "packets dropped (wrong port), count"
vector 11 MixedWLAN.udphost[3].udp droppedPkBadChecksum:vector(count) ETV
attr interpolationmode none
attr recordingmode vector(count)
attr source packetDropReasonIsIncorrectlyReceived(packetDropped)
attr title "packets dropped (checksum error), count"
vector 12 MixedWLAN.udphost[4].udp passedUpPk:vector(count) ETV
attr interpolationmode none
attr recordingmode vector(count)
attr source packetSentToUpper
attr title "packets passed up, count"
vector 13 MixedWLAN.udphost[4].udp droppedPkWrongPort:vector(count) ETV
attr interpolationmode none
attr recordingmode vector(count)
attr source packetDropReasonIsNoPortFound(packetDropped)
attr title "packets dropped (wrong port), count"
vector 14 MixedWLAN.udphost[4].udp droppedPkBadChecksum:vector(count) ETV
attr interpolationmode none
attr recordingmode vector(count)
attr source packetDropReasonIsIncorrectlyReceived(packetDropped)
attr title "packets dropped (checksum error), count"
vector 15 MixedWLAN.udphost[5].udp passedUpPk:vector(count) ETV
attr interpolationmode none
attr recordingmode vector(count)
attr source packetSentToUpper
attr title "packets passed up, count"
vector 16 MixedWLAN.udphost[5].udp droppedPkWrongPort:vector(count) ETV
attr interpolationmode none
attr recordingmode vector(count)
attr source packetDropReasonIsNoPortFound(packetDropped)
attr title "packets dropped (wrong port), count"
vector 17 MixedWLAN.udphost[5].udp droppedPkBadChecksum:vector(count) ETV
attr interpolationmode none
attr recordingmode vector(count)
attr source packetDropReasonIsIncorrectlyReceived(packetDropped)
attr title "packets dropped (checksum error), count"
vector 18 MixedWLAN.udphost[6].udp passedUpPk:vector(count) ETV
attr interpolationmode none
attr recordingmode vector(count)
attr source packetSentToUpper
attr title "packets passed up, count"
vector 19 MixedWLAN.udphost[6].udp droppedPkWrongPort:vector(count) ETV
attr interpolationmode none
attr recordingmode vector(count)
attr source packetDropReasonIsNoPortFound(packetDropped)
attr title "packets dropped (wrong port), count"
vector 20 MixedWLAN.udphost[6].udp droppedPkBadChecksum:vector(count) ETV
attr interpolationmode none
attr recordingmode vector(count)
attr source packetDropReasonIsIncorrectlyReceived(packetDropped)
attr title "packets dropped (checksum error), count"
vector 21 MixedWLAN.tcphost[0].udp passedUpPk:vector(count) ETV
attr interpolationmode none
attr recordingmode vector(count)
attr source packetSentToUpper
attr title "packets passed up, count"
vector 22 MixedWLAN.tcphost[0].udp droppedPkWrongPort:vector(count) ETV
attr interpolationmode none
attr recordingmode vector(count)
attr source packetDropReasonIsNoPortFound(packetDropped)
attr title "packets dropped (wrong port), count"
vector 23 MixedWLAN.tcphost[0].udp droppedPkBadChecksum:vector(count) ETV
attr interpolationmode none
attr recordingmode vector(count)
attr source packetDropReasonIsIncorrectlyReceived(packetDropped)
attr title "packets dropped (checksum error), count"
vector 24 MixedWLAN.tcphost[1].udp passedUpPk:vector(count) ETV
attr interpolationmode none
attr recordingmode vector(count)
attr source packetSentToUpper
attr title "packets passed up, count"
vector 25 MixedWLAN.tcphost[1].udp droppedPkWrongPort:vector(count) ETV
attr interpolationmode none
attr recordingmode vector(count)
attr source packetDropReasonIsNoPortFound(packetDropped)
attr title "packets dropped (wrong port), count"
vector 26 MixedWLAN.tcphost[1].udp droppedPkBadChecksum:vector(count) ETV
attr interpolationmode none
attr recordingmode vector(count)
attr source packetDropReasonIsIncorrectlyReceived(packetDropped)
attr title "packets dropped (checksum error), count"
vector 27 MixedWLAN.tcphost[1].app[0] numActiveSessions:vector ETV
attr autoWarmupFilter false
attr interpolationmode sample-hold
attr recordingmode vector
attr source warmup(sum(connect))
attr title "number of active sessions"
vector 28 MixedWLAN.tcphost[2].udp passedUpPk:vector(count) ETV
attr interpolationmode none
attr recordingmode vector(count)
attr source packetSentToUpper
attr title "packets passed up, count"
vector 29 MixedWLAN.tcphost[2].udp droppedPkWrongPort:vector(count) ETV
attr interpolationmode none
attr recordingmode vector(count)
attr source packetDropReasonIsNoPortFound(packetDropped)
attr title "packets dropped (wrong port), count"
vector 30 MixedWLAN.tcphost[2].udp droppedPkBadChecksum:vector(count) ETV
attr interpolationmode none
attr recordingmode vector(count)
attr source packetDropReasonIsIncorrectlyReceived(packetDropped)
attr title "packets dropped (checksum error), count"
vector 31 MixedWLAN.tcphost[2].app[0] numActiveSessions:vector ETV
attr autoWarmupFilter false
attr interpolationmode sample-hold
attr recordingmode vector
attr source warmup(sum(connect))
attr title "number of active sessions"
vector 32 MixedWLAN.udphost[1].app[0] packetSent:vector(packetBytes) ETV
attr interpolationmode none
attr recordingmode vector(packetBytes)
attr source packetSent
attr title "packets sent, packetBytes"
vector 33 MixedWLAN.udphost[2].app[0] packetSent:vector(packetBytes) ETV
attr interpolationmode none
attr recordingmode vector(packetBytes)
attr source packetSent
attr title "packets sent, packetBytes"
vector 34 MixedWLAN.udphost[3].app[0] packetSent:vector(packetBytes) ETV
attr interpolationmode none
attr recordingmode vector(packetBytes)
attr source packetSent
attr title "packets sent, packetBytes"
vector 35 MixedWLAN.udphost[4].app[0] packetSent:vector(packetBytes) ETV
attr interpolationmode none
attr recordingmode vector(packetBytes)
attr source packetSent
attr title "packets sent, packetBytes"
vector 36 MixedWLAN.udphost[5].app[0] packetSent:vector(packetBytes) ETV
attr interpolationmode none
attr recordingmode vector(packetBytes)
attr source packetSent
attr title "packets sent, packetBytes"
vector 37 MixedWLAN.udphost[6].app[0] packetSent:vector(packetBytes) ETV
attr interpolationmode none
attr recordingmode vector(packetBytes)
attr source packetSent
attr title "packets sent, packetBytes"
vector 38 MixedWLAN.udphost[1].udp packetSent:vector(packetBytes) ETV
attr interpolationmode none
attr recordingmode vector(packetBytes)
attr source packetSent
attr title "packets sent, packetBytes"
vector 39 MixedWLAN.udphost[2].udp packetSent:vector(packetBytes) ETV
attr interpolationmode none
attr recordingmode vector(packetBytes)
attr source packetSent
attr title "packets sent, packetBytes"
vector 40 MixedWLAN.udphost[3].udp packetSent:vector(packetBytes) ETV
attr interpolationmode none
attr recordingmode vector(packetBytes)
attr source packetSent
attr title "packets sent, packetBytes"
vector 41 MixedWLAN.udphost[4].udp packetSent:vector(packetBytes) ETV
attr interpolationmode none
attr recordingmode vector(packetBytes)
attr source packetSent
attr title "packets sent, packetBytes"
vector 42 MixedWLAN.udphost[5].udp packetSent:vector(packetBytes) ETV
attr interpolationmode none
attr recordingmode vector(packetBytes)
attr source packetSent
attr title "packets sent, packetBytes"
vector 43 MixedWLAN.udphost[6].udp packetSent:vector(packetBytes) ETV
attr interpolationmode none
attr recordingmode vector(packetBytes)
attr source packetSent
attr title "packets sent, packetBytes"
vector 44 MixedWLAN.udphost[1].ipv4.arp arpRequestSent:vector(packetBytes) ETV
attr recordingmode vector(packetBytes)
attr source arpRequestSent
attr title "ARP request sent, packetBytes"
vector 45 MixedWLAN.udphost[2].ipv4.arp arpRequestSent:vector(packetBytes) ETV
attr recordingmode vector(packetBytes)
attr source arpRequestSent
attr title "ARP request sent, packetBytes"
vector 46 MixedWLAN.udphost[3].ipv4.arp arpRequestSent:vector(packetBytes) ETV
attr recordingmode vector(packetBytes)
attr source arpRequestSent
attr title "ARP request sent, packetBytes"
vector 47 MixedWLAN.udphost[4].ipv4.arp arpRequestSent:vector(packetBytes) ETV
attr recordingmode vector(packetBytes)
attr source arpRequestSent
attr title "ARP request sent, packetBytes"
vector 48 MixedWLAN.udphost[5].ipv4.arp arpRequestSent:vector(packetBytes) ETV
attr recordingmode vector(packetBytes)
attr source arpRequestSent
attr title "ARP request sent, packetBytes"
vector 49 MixedWLAN.udphost[6].ipv4.arp arpRequestSent:vector(packetBytes) ETV
attr recordingmode vector(packetBytes)
attr source arpRequestSent
attr title "ARP request sent, packetBytes"
vector 50 MixedWLAN.tcphost[1].ipv4.arp arpRequestSent:vector(packetBytes) ETV
attr recordingmode vector(packetBytes)
attr source arpRequestSent
attr title "ARP request sent, packetBytes"
vector 51 MixedWLAN.tcphost[2].ipv4.arp arpRequestSent:vector(packetBytes) ETV
attr recordingmode vector(packetBytes)
attr source arpRequestSent
attr title "ARP request sent, packetBytes"
vector 52 MixedWLAN.udphost[0].ipv4.arp arpReplySent:vector(packetBytes) ETV
attr recordingmode vector(packetBytes)
attr source arpReplySent
attr title "ARP replies sent, packetBytes"
vector 53 MixedWLAN.tcphost[0].ipv4.arp arpReplySent:vector(packetBytes) ETV
attr recordingmode vector(packetBytes)
attr source arpReplySent
attr title "ARP replies sent, packetBytes"
vector 54 MixedWLAN.udphost[0].udp packetReceived:vector(packetBytes) ETV
attr interpolationmode none
attr recordingmode vector(packetBytes)
attr source packetReceived
attr title "packets received, packetBytes"
vector 55 MixedWLAN.udphost[0].app[0] echoedPk:vector(packetBytes) ETV
attr interpolationmode none
attr recordingmode vector(packetBytes)
attr source packetSent
attr title "packets echoed, packetBytes"
vector 56 MixedWLAN.udphost[0].udp packetSent:vector(packetBytes) ETV
attr interpolationmode none
attr recordingmode vector(packetBytes)
attr source packetSent
attr title "packets sent, packetBytes"
vector 57 MixedWLAN.tcphost[2].app[0] packetSent:vector(packetBytes) ETV
attr interpolationmode none
attr recordingmode vector(packetBytes)
attr source packetSent
attr title "packets sent, packetBytes"
vector 58 MixedWLAN.udphost[3].udp packetReceived:vector(packetBytes) ETV
attr interpolationmode none
attr recordingmode vector(packetBytes)
attr source packetReceived
attr title "packets received, packetBytes"
vector 59 MixedWLAN.udphost[3].app[0] packetReceived:vector(packetBytes) ETV
attr interpolationmode none
attr recordingmode vector(packetBytes)
attr source packetReceived
attr title "packets received, packetBytes"
vector 60 MixedWLAN.udphost[3].app[0] rcvdPkLifetime:vector ETV
attr interpolationmode none
attr recordingmode vector
attr source dataAge(packetReceived)
attr title "received packet lifetime"
attr unit s
vector 61 MixedWLAN.udphost[3].app[0] rcvdPkSeqNo:vector ETV
attr interpolationmode none
attr recordingmode vector
attr source appPkSeqNo(packetReceived)
attr title "received packet sequence number"
vector 62 MixedWLAN.udphost[4].udp packetReceived:vector(packetBytes) ETV
attr interpolationmode none
attr recordingmode vector(packetBytes)
attr source packetReceived
attr title "packets received, packetBytes"
vector 63 MixedWLAN.udphost[4].app[0] packetReceived:vector(packetBytes) ETV
attr interpolationmode none
attr recordingmode vector(packetBytes)
attr source packetReceived
attr title "packets received, packetBytes"
vector 64 MixedWLAN.udphost[4].app[0] rcvdPkLifetime:vector ETV
attr interpolationmode none
attr recordingmode vector
attr source dataAge(packetReceived)
attr title "received packet lifetime"
attr unit s
vector 65 MixedWLAN.udphost[4].app[0] rcvdPkSeqNo:vector ETV
attr interpolationmode none
attr recordingmode vector
attr source appPkSeqNo(packetReceived)
attr title "received packet sequence number"
vector 66 MixedWLAN.udphost[2].udp packetReceived:vector(packetBytes) ETV
attr interpolationmode none
attr recordingmode vector(packetBytes)
attr source packetReceived
attr title "packets received, packetBytes"
vector 67 MixedWLAN.udphost[2].app[0] packetReceived:vector(packetBytes) ETV
attr interpolationmode none
attr recordingmode vector(packetBytes)
attr source packetReceived
attr title "packets received, packetBytes"
vector 68 MixedWLAN.udphost[2].app[0] rcvdPkLifetime:vector ETV
attr interpolationmode none
attr recordingmode vector
attr source dataAge(packetReceived)
attr title "received packet lifetime"
attr unit s
vector 69 MixedWLAN.udphost[2].app[0] rcvdPkSeqNo:vector ETV
attr interpolationmode none
attr recordingmode vector
attr source appPkSeqNo(packetReceived)
attr title "received packet sequence number"
vector 70 MixedWLAN.udphost[5].udp packetReceived:vector(packetBytes) ETV
attr interpolationmode none
attr recordingmode vector(packetBytes)
attr source packetReceived
attr title "packets received, packetBytes"
vector 71 MixedWLAN.udphost[5].app[0] packetReceived:vector(packetBytes) ETV
attr interpolationmode none
attr recordingmode vector(packetBytes)
attr source packetReceived
attr title "packets received, packetBytes"
vector 72 MixedWLAN.udphost[5].app[0] rcvdPkLifetime:vector ETV
attr interpolationmode none
attr recordingmode vector
attr source dataAge(packetReceived)
attr title "received packet lifetime"
attr unit s
vector 73 MixedWLAN.udphost[5].app[0] rcvdPkSeqNo:vector ETV
attr interpolationmode none
attr recordingmode vector
attr source appPkSeqNo(packetReceived)
attr title "received packet sequence number"
vector 74 MixedWLAN.udphost[1].udp packetReceived:vector(packetBytes) ETV
attr interpolationmode none
attr recordingmode vector(packetBytes)
attr source packetReceived
attr title "packets received, packetBytes"
vector 75 MixedWLAN.udphost[1].app[0] packetReceived:vector(packetBytes) ETV
attr interpolationmode none
attr recordingmode vector(packetBytes)
attr source packetReceived
attr title "packets received, packetBytes"
vector 76 MixedWLAN.udphost[1].app[0] rcvdPkLifetime:vector ETV
attr interpolationmode none
attr recordingmode vector
attr source dataAge(packetReceived)
attr title "received packet lifetime"
attr unit s
vector 77 MixedWLAN.udphost[1].app[0] rcvdPkSeqNo:vector ETV
attr interpolationmode none
attr recordingmode vector
attr source appPkSeqNo(packetReceived)
attr title "received packet sequence number"
vector 78 MixedWLAN.tcphost[0].app[0] packetReceived:vector(packetBytes) ETV
attr interpolationmode none
attr recordingmode vector(packetBytes)
attr source packetReceived
attr title "packets received, packetBytes"
vector 79 MixedWLAN.tcphost[0].app[0] endToEndDelay:vector ETV
attr interpolationmode none
attr recordingmode vector
attr source dataAge(packetReceived)
attr title "end-to-end delay"
attr unit s
vector 80 MixedWLAN.tcphost[1].app[0] packetSent:vector(packetBytes) ETV
attr interpolationmode none
attr recordingmode vector(packetBytes)
attr source packetSent
attr title "packets sent, packetBytes"
vector 81 MixedWLAN.udphost[6].udp packetReceived:vector(packetBytes) ETV
attr interpolationmode none
attr recordingmode vector(packetBytes)
attr source packetReceived
attr title "packets received, packetBytes"
vector 82 MixedWLAN.udphost[6].app[0] packetReceived:vector(packetBytes) ETV
attr interpolationmode none
attr recordingmode vector(packetBytes)
attr source packetReceived
attr title "packets received, packetBytes"
vector 83 MixedWLAN.udphost[6].app[0] rcvdPkLifetime:vector ETV
attr interpolationmode none
attr recordingmode vector
attr source dataAge(packetReceived)
attr title "received packet lifetime"
attr unit s
vector 84 MixedWLAN.udphost[6].app[0] rcvdPkSeqNo:vector ETV
attr interpolationmode none
attr recordingmode vector
attr source appPkSeqNo(packetReceived)
attr title "received packet sequence number"
vector 85 MixedWLAN.tcphost[0].app[0] packetSent:vector(packetBytes) ETV
attr interpolationmode none
attr recordingmode vector(packetBytes)
attr source packetSent
attr title "packets sent, packetBytes"
vector 86 MixedWLAN.tcphost[2].app[0] packetReceived:vector(packetBytes) ETV
attr interpolationmode none
attr recordingmode vector(packetBytes)
attr source packetReceived
attr title "packets received, packetBytes"
vector 87 MixedWLAN.tcphost[2].app[0] endToEndDelay:vector ETV
attr interpolationmode none
attr recordingmode vector
attr source dataAge(packetReceived)
attr title "end-to-end delay"
attr unit s
vector 88 MixedWLAN.tcphost[1].app[0] packetReceived:vector(packetBytes) ETV
attr interpolationmode none
attr recordingmode vector(packetBytes)
attr source packetReceived
attr title "packets received, packetBytes"
vector 89 MixedWLAN.tcphost[1].app[0] endToEndDelay:vector ETV
attr interpolationmode none
attr recordingmode vector
attr source dataAge(packetReceived)
attr title "end-to-end delay"
attr unit s
vector 90 MixedWLAN.udphost[4].app[0] throughput:vector ETV
attr recordingmode vector
attr source throughput(packetReceived)
attr title throughput
attr unit bps
vector 91 MixedWLAN.udphost[1].app[0] throughput:vector ETV
attr recordingmode vector
attr source throughput(packetReceived)
attr title throughput
attr unit bps
vector 92 MixedWLAN.udphost[5].app[0] throughput:vector ETV
attr recordingmode vector
attr source throughput(packetReceived)
attr title throughput
attr unit bps
vector 93 MixedWLAN.udphost[2].app[0] throughput:vector ETV
attr recordingmode vector
attr source throughput(packetReceived)
attr title throughput
attr unit bps
vector 94 MixedWLAN.udphost[3].app[0] throughput:vector ETV
attr recordingmode vector
attr source throughput(packetReceived)
attr title throughput
attr unit bps
vector 95 MixedWLAN.udphost[6].app[0] throughput:vector ETV
attr recordingmode vector
attr source throughput(packetReceived)
attr title throughput
attr unit bps
0	0	0	0
0	3600	0.008626316802	1
0	4238	0.010098777891	2
0	4404	0.010450777891	3
0	4887	0.011596897229	4
0	5210	0.012355016567	5
0	6132	0.014625569141	6
0	12719	0.035845147755	7
0	13388	0.040227758197	8
0	14498	0.042854489818	9
0	14814	0.043702609156	10
0	15130	0.044469728494	11
0	15446	0.045272847832	12
0	22249	0.078412344725	13
0	23252	0.080704862171	14
0	24045	0.082613615133	15
0	24524	0.083705881539	16
0	24848	0.084554000877	17
0	25494	0.086124203378	18
0	28363	0.116885199164	19
0	29841	0.12031371771	20
0	30650	0.122168379088	21
0	31326	0.123770882341	22
0	32054	0.125486267621	23
0	33053	0.127980972525	24
0	36415	0.15950575537	25
0	37202	0.161320223586	26
0	37518	0.162024342924	27
0	38468	0.165220560614	28
0	38635	0.165581560614	29
0	39832	0.168480499341	30
0	46258	0.197173982568	31
0	46891	0.20303812021	32
0	47683	0.204942538276	33
0	47845	0.205294538276	34
0	48802	0.207733317465	35
0	49439	0.210818212442	36
0	55100	0.233519328382	37
0	56696	0.239571849663	38
0	57176	0.240889147887	39
0	58019	0.246627503267	40
0	58670	0.250544202796	41
0	59319	0.252357569431	42
0	62314	0.268748256072	43
0	65408	0.281015534833	44
0	66702	0.284304880998	45
0	67843	0.28706797428	46
0	68184	0.287826108782	47
0	69076	0.290028641116	48
0	69980	0.304135028155	49
0	72518	0.315544572805	50
0	74289	0.325822725958	51
0	74943	0.327580381888	52
0	75265	0.328311622952	53
0	76225	0.330721509636	54
0	79880	0.347900096784	55
0	80527	0.352595071656	56
0	82394	0.367662834985	57
0	83361	0.369882666869	58
0	83523	0.370234666869	59
0	85148	0.374093107962	60
0	89674	0.38692511369	61
0	90379	0.396582667481	62
0	91024	0.403421094424	63
0	91658	0.406112413891	64
0	92306	0.411356711253	65
0	92946	0.413480366311	66
0	95264	0.427071250369	67
0	100166	0.440889586965	68
0	100816	0.442590985959	69
0	101485	0.44593711686	70
0	102152	0.45172650931	71
0	102810	0.455984730072	72
0	103453	0.461143814886	73
0	108684	0.48302093532	74
0	109175	0.484063360748	75
0	111121	0.488609788732	76
0	111993	0.495353508503	77
0	112636	0.496959749911	78
0	113288	0.49872808396	79
0	115265	0.520508730379	80
0	117010	0.524894682791	81
0	118083	0.527531754575	82
0	121277	0.535284006521	83
0	122271	0.537414978422	84
0	122594	0.538128111838	85
0	123839	0.564064751637	86
0	124155	0.56477799938	87
0	125095	0.567115377366	88
0	126847	0.572010847674	89
0	127494	0.573591365754	90
0	129004	0.576999831755	91
0	133743	0.606767387723	92
0	134540	0.608925876041	93
0	134856	0.609711078542	94
0	135172	0.61055019788	95
0	136434	0.613564779889	96
0	136596	0.614015779889	97
0	143583	0.645660691676	98
0	144224	0.647339069082	99
0	144545	0.648052316825	100
0	145490	0.651423446493	101
0	146123	0.653144247922	102
0	146444	0.653893450423	103
0	153421	0.684309601313	104
0	154073	0.686307450087	105
0	154735	0.689382766756	106
0	155387	0.691521275186	107
0	156045	0.693872472901	108
0	156525	0.695027861919	109
0	159124	0.725121962106	110
0	160332	0.727950166599	111
0	161239	0.73021923039	112
0	162317	0.732764351291	113
0	165304	0.740070688498	114
0	165713	0.741064050226	115
0	167315	0.761983194582	116
0	167948	0.764330228833	117
0	168581	0.76891750009	118
0	169216	0.771563748893	119
0	169866	0.774001833374	120
0	171840	0.784565883399	121
0	177144	0.79785576374	122
0	177811	0.801574471636	123
0	178469	0.804288796149	124
0	179145	0.810731275273	125
0	179810	0.818089669323	126
0	180443	0.819678045484	127
0	184290	0.836816203419	128
0	187535	0.84505729355	129
0	188194	0.846727940765	130
0	189036	0.852317507037	131
0	189710	0.856676912756	132
0	190360	0.861873575105	133
0	191038	0.876772072726	134
0	193559	0.884932793994	135
0	195058	0.888554114943	136
0	196751	0.892760826304	137
0	198716	0.897699807464	138
0	199710	0.900105579732	139
0	200886	0.912919746305	140
0	201523	0.922738241287	141
0	202168	0.927275973012	142
0	204363	0.93469335914	143
0	205093	0.936340873542	144
0	207807	0.942824825012	145
0	210718	0.957869012055	146
0	211366	0.959706761857	147
0	212029	0.96990638087	148
0	212665	0.971467647276	149
0	213298	0.974880819747	150
0	214744	0.984988455368	151
0	220235	0.999310018343	152
0	221152	1.002016482147	153
0	221839	1.00838961527	154
0	222513	1.01333736553	155
0	222988	1.014537754548	156
0	223827	1.026153453255	157
0	225744	1.035446268444	158
0	228560	1.044440179698	159
0	229386	1.046321900681	160
0	230990	1.050242419892	161
0	232586	1.054282025916	162
0	233646	1.063091421726	163
0	234324	1.074164248891	164
0	234957	1.078702928939	165
0	237936	1.090165333107	166
0	238824	1.092440851683	167
0	239561	1.094146564461	168
0	243455	1.107518047584	169
0	244149	1.115540537971	170
0	244629	1.116632898373	171
0	245452	1.126185512626	172
0	246101	1.127872783624	173
0	247086	1.135505336995	174
0	251061	1.150890010835	175
0	252910	1.155554708716	176
0	254587	1.160345338298	177
0	255264	1.16510147124	178
0	255943	1.170559684099	179
0	256594	1.175399514804	180
0	259502	1.1910449531	181
0	260221	1.192644625529	182
0	261476	1.198767601633	183
0	263292	1.20564430225	184
0	264090	1.207467703158	185
0	265936	1.211800555629	186
0	267113	1.229042959858	187
0	267746	1.230640201266	188
0	268379	1.234039138684	189
0	272004	1.249492990411	190
0	272654	1.25113540567	191
0	273308	1.253858610931	192
0	276900	1.265385630054	193
0	277590	1.272201236215	194
0	278239	1.276092206422	195
0	281127	1.286376519424	196
0	282474	1.292480804883	197
0	283157	1.297995341858	198
0	283800	1.300359440201	199
0	287378	1.310097589793	200
0	288066	1.316600047316	201
0	289452	1.328277022882	202
0	290332	1.330357596292	203
0	292771	1.33662375475	204
0	293608	1.340318393758	205
0	294309	1.347775538755	206
0	297292	1.358926409041	207
0	298565	1.367361271786	208
0	299237	1.372332151749	209
0	299870	1.374046364911	210
0	303445	1.383534736369	211
0	304131	1.389622056702	212
0	304818	1.399912148227	213
0	306155	1.408030161659	214
0	306471	1.408824431339	215
0	308794	1.414405633532	216
0	310360	1.423381756031	217
0	313428	1.431637915203	218
0	314618	1.437945809551	219
0	315307	1.445113318014	220
0	315956	1.44989205962	221
0	316589	1.452212684656	222
0	317413	1.458792003141	223
0	320839	1.470385508887	224
0	322472	1.479822583343	225
0	325102	1.488351645136	226
0	325750	1.48991295274	227
0	326397	1.491528367999	228
0	327063	1.4951323379	229
0	328369	1.51150600802	230
0	330969	1.51850277419	231
0	332011	1.527142110662	232
0	332660	1.52871056612	233
0	333817	1.531483501292	234
0	334133	1.53223262063	235
0	337615	1.553567631595	236
0	339191	1.561640715587	237
0	341293	1.566608682182	238
0	342275	1.569054584701	239
0	343110	1.572609234987	240
0	343763	1.574497160129	241
0	347413	1.593791853512	242
0	348116	1.604686390815	243
0	348587	1.605877757896	244
0	349980	1.609886093129	245
0	352168	1.615425259589	246
0	353603	1.619548623629	247
0	354330	1.630052561038	248
0	357896	1.641588003336	249
0	358542	1.643230429679	250
0	359203	1.646580244575	251
0	359891	1.654232592472	252
0	360525	1.656078434951	253
0	364114	1.669916046935	254
0	367482	1.682250240866	255
0	368373	1.68445275644	256
0	369019	1.686158546416	257
0	369717	1.693201976319	258
0	370388	1.698843895956	259
0	373534	1.712793589506	260
0	374601	1.716221293012	261
0	375269	1.720469533166	262
0	375931	1.723371362978	263
0	378154	1.731497883408	264
0	380176	1.737312228279	265
0	380901	1.756590222305	266
0	381621	1.759256836117	267
0	383187	1.763365382561	268
0	383431	1.763919591782	269
0	387623	1.776019370916	270
0	388030	1.777021732644	271
0	390749	1.798319131451	272
0	391382	1.800476633028	273
0	392020	1.802235954176	274
0	392490	1.8034002524	275
0	396248	1.814085549064	276
0	396888	1.815628820062	277
0	400602	1.841037493908	278
0	401072	1.842201746662	279
0	401863	1.844124175299	280
0	402496	1.846904700006	281
0	403145	1.851878896138	282
0	404346	1.857834848405	283
0	410393	1.877263441161	284
0	411078	1.882892110399	285
0	411711	1.886273517539	286
0	412360	1.888131943882	287
0	413005	1.893562379598	288
0	413671	1.89882357556	289
0	416140	1.913817426324	290
0	420570	1.924716734148	291
0	421639	1.927293794122	292
0	422446	1.929225411191	293
0	422769	1.930010530529	294
0	423605	1.934808913537	295
0	424320	1.948435369011	296
0	426925	1.966205150734	297
0	428482	1.969829907984	298
0	429136	1.97144935057	299
0	429974	1.973557023235	300
0	431307	1.976761103284	301
0	434205	1.989831619584	302
0	434884	2.005099939342	303
0	435517	2.006805674355	304
0	436150	2.008475100698	305
0	436783	2.010314409151	306
0	437416	2.01359548817	307
0	440274	2.025881208275	308
0	444732	2.047252441855	309
0	445370	2.050119666404	310
0	445686	2.05087784529	311
0	446631	2.054952566184	312
0	447279	2.058173474273	313
0	447945	2.064311974697	314
0	453270	2.085707021011	315
0	454793	2.089373678834	316
0	455861	2.091891648854	317
0	456114	2.092415820442	318
0	457307	2.101464302369	319
0	457632	2.102294421707	320
0	458474	2.120525987066	321
0	459798	2.12891695809	322
0	461474	2.133180732907	323
0	462289	2.135108478009	324
0	463957	2.13913945553	325
0	465920	2.144080220405	326
0	468318	2.158221104439	327
0	468955	2.164941413954	328
0	469604	2.171436927289	329
0	470251	2.175184833551	330
0	470886	2.176818211537	331
0	474471	2.18722639509	332
0	478102	2.199285372914	333
0	478753	2.201657305878	334
0	479453	2.211160934978	335
0	480106	2.217113371961	336
0	480422	2.217844574462	337
0	482667	2.226077533604	338
0	487864	2.241332181343	339
0	488608	2.245951304102	340
0	489262	2.248328871534	341
0	489933	2.25343170855	342
0	490598	2.260662531583	343
0	491247	2.267947906119	344
0	494815	2.278329762183	345
0	497211	2.284582300687	346
0	499092	2.290666950673	347
0	499745	2.292989303176	348
0	500446	2.301859172947	349
0	501095	2.305722309553	350
0	503731	2.321855462755	351
0	506188	2.328184011585	352
0	506756	2.329514535105	353
0	507908	2.332181253166	354
0	510129	2.337695829479	355
0	510921	2.344970392473	356
0	511608	2.364445187594	357
0	512673	2.368676148781	358
0	514338	2.372780523902	359
0	515146	2.374626094351	360
0	516657	2.378241665377	361
0	519192	2.384972229278	362
0	521588	2.407474648229	363
0	522226	2.409332734464	364
0	522696	2.410443123482	365
0	523487	2.415237493354	366
0	524128	2.417598335955	367
0	525662	2.424014135447	368
0	531427	2.446415471825	369
0	532069	2.448030887084	370
0	532702	2.452365443262	371
0	533335	2.45461084604	372
0	534000	2.459420760797	373
0	534633	2.461776554123	374
0	540619	2.482203380249	375
0	542034	2.488378440731	376
0	542198	2.488748440731	377
0	543179	2.49258697076	378
0	543847	2.498800944185	379
0	544513	2.505791346478	380
0	547659	2.520084415791	381
0	548724	2.523186473006	382
0	550884	2.530844727041	383
0	552995	2.536358693719	384
0	553670	2.541019350395	385
0	554341	2.545102336351	386
0	555026	2.558031383527	387
0	556261	2.566224476464	388
0	557340	2.569060318567	389
0	561605	2.580003206834	390
0	562277	2.581659685059	391
0	563969	2.586048855028	392
0	564874	2.599159410502	393
0	565507	2.603108474482	394
0	566140	2.605689111969	395
0	568101	2.61639560429	396
0	570023	2.621206631968	397
0	571027	2.62578503812	398
0	574568	2.63815589808	399
0	575343	2.646366097081	400
0	575993	2.648179523424	401
0	576637	2.651093877262	402
0	577391	2.660652981496	403
0	579495	2.666301826809	404
0	584502	2.682013309513	405
0	585164	2.686302927413	406
0	585840	2.691838717777	407
0	586485	2.694067582301	408
0	587164	2.704908624119	409
0	587799	2.707541269559	410
0	592854	2.726817059918	411
0	594108	2.729997462725	412
0	595645	2.735634699839	413
0	596294	2.737339960713	414
0	596987	2.744457298423	415
0	597623	2.745892632472	416
0	599255	2.765774769877	417
0	600147	2.767882343287	418
0	602501	2.774243627093	419
0	603149	2.775778005079	420
0	605728	2.782614661419	421
0	607447	2.78920895503	422
0	608160	2.804279001932	423
0	608793	2.807078439283	424
0	610231	2.818612009309	425
0	610876	2.820105531505	426
0	613809	2.827146729492	427
0	614397	2.828487434396	428
0	617978	2.843160710849	429
0	618641	2.850440642262	430
0	619449	2.858250115418	431
0	619765	2.859035234756	432
0	620572	2.86452831623	433
0	621205	2.866859513844	434
0	626550	2.883223044163	435
0	628425	2.888535216642	436
0	629098	2.893035315	437
0	629946	2.901601771846	438
0	630108	2.901944771846	439
0	631069	2.906131399379	440
0	632352	2.91964654514	441
0	635821	2.928325492092	442
0	638926	2.937474134427	443
0	639603	2.941824503368	444
0	640268	2.945989631091	445
0	640913	2.948105186363	446
0	641598	2.962072629647	447
0	642231	2.964911118244	448
0	646394	2.983164601648	449
0	646729	2.983989773236	450
0	648997	2.98933313653	451
0	649247	2.989947345751	452
0	651399	2.999610330345	453
0	652071	3.003414635598	454
0	652744	3.017688154701	455
0	653377	3.020801834739	456
0	654010	3.024355153517	457
0	656203	3.030166961831	458
0	658234	3.034959858682	459
0	661869	3.045302129167	460
0	662592	3.057102268015	461
0	663225	3.061079342409	462
0	663858	3.062730650013	463
0	664520	3.071806793751	464
0	665172	3.074730008133	465
0	669715	3.090331333054	466
0	672364	3.097892275902	467
0	672691	3.098713409318	468
0	673658	3.100987849078	469
0	674365	3.109782641814	470
0	675016	3.111424930733	471
0	676546	3.129101275882	472
0	678969	3.135844164469	473
0	679881	3.138154796331	474
0	680614	3.13991520135	475
0	684161	3.150184571388	476
0	684826	3.153791951448	477
0	685533	3.168693108567	478
0	686768	3.173788791626	479
0	688612	3.178735261822	480
0	689107	3.179846694689	481
0	693412	3.193026934009	482
0	694672	3.198629397478	483
0	695540	3.212424803838	484
0	695856	3.213218923176	485
0	696647	3.220581911038	486
0	696968	3.221286044454	487
0	700119	3.232577105299	488
0	704034	3.242274043299	489
0	705273	3.252246442471	490
0	705922	3.253861763619	491
0	706561	3.255787172454	492
0	707194	3.257642726197	493
0	707891	3.276619162958	494
0	708956	3.28028027417	495
0	713491	3.291821087892	496
0	715441	3.296474946226	497
0	716019	3.297801402567	498
0	717005	3.301101386268	499
0	717739	3.314610840621	500
0	718372	3.318676082081	501
0	719023	3.328221402395	502
0	720954	3.334832283601	503
0	721847	3.337008088992	504
0	725712	3.346195458602	505
0	727553	3.35638156292	506
0	728204	3.358077851839	507
0	728885	3.370648356612	508
0	729518	3.372308782955	509
0	730151	3.378604832424	510
0	733734	3.388854744993	511
0	735355	3.394381525801	512
0	738014	3.402662605282	513
0	738679	3.406228329267	514
0	739324	3.40779875561	515
0	739999	3.413622201259	516
0	743161	3.434095859472	517
0	744230	3.437707471945	518
0	745061	3.44050925886	519
0	747291	3.446552652164	520
0	748782	3.450128090473	521
0	749106	3.450976209811	522
0	751801	3.474063537215	523
0	752528	3.475904156214	524
0	754092	3.479818983823	525
0	755332	3.483010454744	526
0	756144	3.485103983072	527
0	757205	3.493334539447	528
0	760490	3.508945590807	529
0	761141	3.515967683407	530
0	762568	3.521731993655	531
0	763366	3.523721390885	532
0	765555	3.529382276745	533
0	766468	3.531511900305	534
0	769350	3.548014339121	535
0	771157	3.559777319675	536
0	771479	3.560544589355	537
0	771955	3.561717708693	538
0	772904	3.568269684072	539
0	773581	3.573107824798	540
0	777189	3.588045448854	541
0	779579	3.596337691751	542
0	780558	3.59872547522	543
0	782065	3.60266580828	544
0	782760	3.609273076142	545
0	783433	3.61456271623	546
0	785122	3.624841678904	547
0	787714	3.638640340707	548
0	788282	3.639922747919	549
0	788761	3.640987867257	550
0	792570	3.651553223783	551
0	793261	3.658422942099	552
0	794444	3.667372815632	553
0	797498	3.676509721966	554
0	798147	3.678116079141	555
0	798819	3.682839693702	556
0	799503	3.691070196864	557
0	800151	3.693757409002	558
0	803779	3.710916604481	559
0	804427	3.713559474697	560
0	807631	3.722044874147	561
0	808121	3.723129247361	562
0	809357	3.734223734316	563
0	810000	3.736372295811	564
0	811091	3.746780063745	565
0	814013	3.754617009622	566
0	814922	3.75703703643	567
0	815570	3.758769451689	568
0	817587	3.773849065278	569
0	819380	3.778718806861	570
0	820670	3.78667704741	571
0	822381	3.794767749027	572
0	823012	3.796221020025	573
0	825375	3.802294432476	574
0	826284	3.815041718436	575
0	826917	3.816810041359	576
0	830487	3.82733213855	577
0	831147	3.830872185027	578
0	831829	3.837009238589	579
0	832561	3.839057680695	580
0	836102	3.854397310672	581
0	836761	3.857593314312	582
0	839465	3.871786724166	583
0	840852	3.874864994887	584
0	841168	3.875695114225	585
0	842376	3.883658485891	586
0	843052	3.890718635577	587
0	846610	3.899825490248	588
0	847343	3.91074475912	589
0	847976	3.913495164473	590
0	848609	3.915196098984	591
0	851592	3.927737993029	592
0	851754	3.928116993029	593
0	854845	3.941215647068	594
0	857193	3.949532554439	595
0	857842	3.951282911614	596
0	858520	3.95681532436	597
0	859192	3.963690405003	598
0	859820	3.965296726151	599
0	863242	3.9829843796	600
0	865277	3.989044846803	601
0	866103	3.990894510068	602
0	867707	3.994829385867	603
0	868975	3.999549388574	604
0	869634	4.002009609883	605
0	870349	4.018822570683	606
0	873821	4.031241115202	607
0	874721	4.033525901519	608
0	876848	4.038655808074	609
0	878636	4.042911750328	610
0	879465	4.045722442069	611
0	880181	4.054225343513	612
0	880846	4.071515264689	613
0	881479	4.073400621864	614
0	885191	4.082688823914	615
0	886889	4.086781649181	616
0	888849	4.09168187451	617
0	890054	4.097786722257	618
0	890755	4.108101872317	619
0	891394	4.109618229492	620
0	892027	4.115576236898	621
0	892697	4.122838244565	622
0	896867	4.133594325823	623
0	899886	4.142565010407	624
0	900593	4.150702450292	625
0	901232	4.152508950874	626
0	901879	4.160416408219	627
0	902540	4.166087437049	628
0	904224	4.175728884978	629
0	906063	4.180291766517	630
0	909851	4.190318721849	631
0	911022	4.19344560757	632
0	911683	4.196806348203	633
0	912404	4.210997614645	634
0	913037	4.220085576726	635
0	913691	4.22326073664	636
0	915521	4.22843157813	637
0	916692	4.231263722769	638
0	920010	4.239275382939	639
0	922255	4.247306894299	640
0	922953	4.256740535223	641
0	923601	4.265424998641	642
0	924250	4.270792653338	643
0	924888	4.275338445123	644
0	926496	4.284021625702	645
0	928258	4.288274641512	646
0	932379	4.298288861662	647
0	933450	4.308116214874	648
0	933775	4.308901417375	649
0	934748	4.319141050199	650
0	935396	4.320750500596	651
0	936029	4.32823608122	652
0	937658	4.340097915452	653
0	940087	4.346240447256	654
0	941770	4.350112259016	655
0	944548	4.359127308257	656
0	945031	4.360363668659	657
0	945909	4.373006550402	658
0	946552	4.383372992758	659
0	947191	4.387376743526	660
0	947824	4.388902119687	661
0	948659	4.397820731599	662
0	950338	4.401780397144	663
0	954187	4.411313537016	664
0	956370	4.422111605662	665
0	957035	4.425667134544	666
0	957672	4.429529224255	667
0	958328	4.435668190353	668
0	958970	4.438594821424	669
0	959651	4.450020779841	670
0	964202	4.463042929315	671
0	966432	4.468822304314	672
0	967335	4.470989039188	673
0	968252	4.473991670258	674
0	968902	4.47603706247	675
0	969631	4.489134170297	676
0	970280	4.500222432079	677
0	971093	4.505732021573	678
0	971645	4.506996582179	679
0	975298	4.516104375218	680
0	976293	4.518500022333	681
0	979448	4.532467657608	682
0	980114	4.541944016348	683
0	980601	4.543196284086	684
0	981394	4.545091782508	685
0	982048	4.552985310112	686
0	983992	4.558126100368	687
0	987441	4.570711210615	688
0	989900	4.577674913351	689
0	990547	4.579452291337	690
0	991220	4.583968553002	691
0	991923	4.596538089467	692
0	992556	4.601239526556	693
0	996124	4.611655029714	694
0	996950	4.613722461711	695
0	998830	4.618792433315	696
0	999902	4.621328655024	697
0	1001746	4.632294780791	698
0	1002425	4.64551692035	699
0	1003996	4.649664697284	700
0	1005063	4.65227652999	701
0	1007084	4.657483624776	702
0	1007920	4.661142305872	703
0	1011126	4.673794636683	704
0	1012224	4.681283292554	705
0	1012894	4.684972594515	706
0	1013550	4.694276355044	707
0	1014199	4.696035626042	708
0	1015864	4.700673244632	709
0	1018490	4.71773239784	710
0	1020066	4.722104775464	711
0	1022685	4.729370911567	712
0	1023390	4.737357705881	713
0	1024035	4.739106567396	714
0	1024680	4.742149088632	715
0	1028012	4.757878083527	716
0	1028906	4.760386540915	717
0	1029698	4.768598391294	718
0	1032322	4.775721118412	719
0	1033565	4.779020099397	720
0	1034476	4.781285918894	721
0	1035209	4.796488671722	722
0	1036356	4.801638560061	723
0	1039401	4.809745570334	724
0	1040080	4.814143941014	725
0	1040720	4.815624317175	726
0	1041373	4.81788072101	727
0	1045025	4.83641465154	728
0	1045689	4.839715644503	729
0	1046352	4.849896497205	730
0	1046840	4.851051864286	731
0	1047895	4.85350071175	732
0	1049027	4.856432647889	733
0	1053989	4.876125813818	734
0	1055384	4.879672291658	735
0	1056195	4.889573358322	736
0	1056995	4.891450938118	737
0	1057311	4.892200057456	738
0	1058102	4.894338494175	739
0	1061730	4.91601247391	740
0	1062374	4.91772721727	741
0	1065967	4.927022911042	742
0	1066619	4.928557337385	743
0	1066941	4.929279539886	744
0	1067904	4.93157198977	745
0	1069338	4.954577382362	746
0	1070053	4.956337767112	747
0	1073920	4.969455237993	748
0	1074925	4.972028766944	749
0	1076230	4.975098161699	750
0	1076392	4.975585161699	751
0	1078495	4.992764788675	752
0	1079128	4.994650685663	753
0	1080384	5.009506126675	754
0	1080941	5.010845657044	755
0	1081674	5.012754301393	756
0	1082724	5.015388033826	757
0	1088317	5.036100465552	758
0	1088974	5.038740138988	759
0	1089646	5.050057866024	760
0	1090121	5.051114164248	761
0	1090907	5.053000425122	762
0	1091540	5.054588748045	763
0	1098123	5.078353207077	764
0	1098774	5.081790127007	765
0	1099475	5.091295397938	766
0	1100122	5.093630693153	767
0	1100914	5.096065844142	768
0	1101230	5.09680596348	769
0	1105053	5.119731304102	770
0	1106468	5.12332190811	771
0	1108987	5.129944419263	772
0	1109810	5.131884997182	773
0	1110578	5.136734373031	774
0	1110899	5.137438575532	775
0	1114842	5.157828916377	776
0	1115483	5.160300084439	777
0	1116197	5.169484906575	778
0	1116676	5.170712295593	779
0	1118406	5.175625658779	780
0	1118568	5.176031658779	781
0	1121781	5.196584006649	782
0	1122764	5.200687061382	783
0	1125983	5.210362766789	784
0	1126794	5.212258235005	785
0	1127116	5.213097354343	786
0	1127605	5.214252557928	787
0	1131577	5.23604981972	788
0	1132245	5.240179331905	789
0	1132932	5.251708897968	790
0	1133735	5.253713600137	791
0	1134630	5.25590833257	792
0	1135099	5.257112777461	793
0	1139736	5.271936266537	794
0	1142146	5.282335521903	795
0	1142825	5.288060255782	796
0	1143459	5.291816401349	797
0	1144112	5.29577919354	798
0	1144428	5.29649246322	799
0	1148567	5.316148047618	800
0	1151965	5.325493814421	801
0	1152609	5.327109027583	802
0	1153306	5.334486170941	803
0	1153971	5.338911530309	804
0	1154604	5.34055390647	805
0	1155974	5.351427696561	806
0	1158842	5.360708755044	807
0	1159507	5.363256802596	808
0	1163116	5.374058627516	809
0	1163773	5.375926155376	810
0	1164412	5.377307531537	811
0	1165133	5.394110961117	812
0	1165766	5.399563647709	813
0	1166574	5.401640166961	814
0	1170005	5.413426709549	815
0	1170486	5.414582031388	816
0	1171651	5.417408821592	817
0	1174963	5.433315595896	818
0	1175614	5.435146973302	819
0	1176247	5.440237877981	820
0	1177002	5.449824875514	821
0	1178845	5.454940537655	822
0	1180769	5.459688337254	823
0	1184419	5.471101984307	824
0	1185425	5.476487952994	825
0	1185905	5.477661251218	826
0	1186744	5.48486644431	827
0	1187409	5.492588531584	828
0	1188058	5.500409670423	829
0	1190251	5.50664376939	830
0	1193469	5.514039970285	831
0	1194377	5.516133662155	832
0	1196671	5.528971400517	833
0	1197323	5.532130454061	834
0	1197984	5.542723152949	835
0	1198621	5.547381179533	836
0	1199341	5.549618780234	837
0	1202548	5.557808285276	838
0	1206194	5.569413504464	839
0	1207207	5.576380138245	840
0	1207880	5.580592045432	841
0	1208523	5.58609430153	842
0	1209168	5.587701102291	843
0	1209817	5.595230883014	844
0	1213239	5.608858990314	845
0	1216349	5.620348221652	846
0	1217326	5.622547182007	847
0	1218139	5.624486773338	848
0	1218970	5.628177083339	849
0	1219627	5.630733802825	850
0	1220346	5.644224478395	851
0	1223911	5.659417467273	852
0	1224391	5.660500789112	853
0	1225200	5.662567165273	854
0	1227098	5.672394962256	855
0	1227346	5.672901204646	856
0	1230186	5.688596303452	857
0	1231524	5.698522161087	858
0	1233860	5.704981381058	859
0	1234751	5.706942110569	860
0	1235748	5.709505016224	861
0	1236419	5.714059147228	862
0	1240100	5.731965498368	863
0	1240741	5.736886932193	864
0	1241390	5.74402821634	865
0	1242280	5.746258995361	866
0	1244298	5.751448496778	867
0	1245365	5.754029320271	868
0	1249683	5.772902807987	869
0	1249999	5.773651927325	870
0	1251269	5.781137052944	871
0	1251953	5.787650300254	872
0	1252591	5.789620979325	873
0	1253228	5.791362245731	874
0	1256864	5.808312925466	875
0	1257521	5.811231018467	876
0	1260505	5.82272365513	877
0	1261733	5.825505906143	878
0	1262380	5.827274240192	879
0	1263073	5.83393843222	880
0	1266673	5.850675535466	881
0	1267308	5.852155858389	882
0	1268296	5.864367881493	883
0	1269197	5.866472652557	884
0	1269513	5.867176785973	885
0	1270711	5.870252505024	886
0	1274544	5.890850389059	887
0	1274948	5.891753642899	888
0	1277845	5.903963818497	889
0	1278493	5.905660175672	890
0	1279158	5.910583450823	891
0	1279628	5.911828749047	892
0	1283456	5.933674786215	893
0	1284093	5.935562243027	894
0	1285158	5.941877577949	895
0	1286411	5.945258869476	896
0	1287483	5.947877009617	897
0	1289330	5.952515804624	898
0	1292397	5.971838313228	899
0	1293457	5.974338465677	900
0	1294520	5.977319285441	901
0	1295191	5.981539227056	902
0	1295884	5.987937408926	903
0	1296969	5.994260298527	904
0	1300141	6.007404926468	905
0	1300812	6.014001711765	906
0	1302404	6.021838448616	907
0	1304424	6.026904510071	908
0	1305228	6.02865713876	909
0	1306219	6.030986042526	910
0	1309959	6.048139604373	911
0	1310624	6.053315204481	912
0	1311297	6.057994906666	913
0	1311958	6.064835538334	914
0	1312594	6.067664493028	915
0	1312928	6.068449734092	916
0	1317663	6.087091921658	917
0	1320467	6.09683456127	918
0	1320948	6.097971950288	919
0	1321795	6.105045547982	920
0	1322432	6.106687882031	921
0	1323076	6.108222189635	922
0	1326682	6.127905569485	923
0	1329430	6.135173336147	924
0	1330957	6.141364409551	925
0	1331622	6.1448787514	926
0	1332287	6.149148671502	927
0	1332920	6.150808937908	928
0	1333874	6.168342736729	929
0	1337862	6.179471490622	930
0	1338026	6.179805490622	931
0	1339772	6.184350695661	932
0	1341464	6.188105448671	933
0	1342740	6.192990108947	934
0	1343465	6.20472924993	935
0	1344105	6.214729932031	936
0	1344747	6.216381203029	937
0	1347866	6.224620412465	938
0	1348952	6.227256223209	939
0	1349604	6.228826557258	940
0	1353275	6.24359481782	941
0	1353962	6.255082282621	942
0	1354595	6.260104193699	943
0	1355228	6.262728029013	944
0	1355861	6.2644988241	945
0	1356512	6.266015131704	946
0	1361215	6.285192428404	947
0	1363726	6.291774667681	948
0	1364425	6.298898341278	949
0	1365080	6.301496626888	950
0	1365730	6.307925626913	951
0	1366209	6.309188925137	952
0	1369988	6.326470623238	953
0	1370643	6.329301435921	954
0	1373965	6.338216844538	955
0	1374872	6.340446511509	956
0	1375533	6.344074670505	957
0	1376180	6.345617936911	958
0	1376903	6.363788045717	959
0	1378309	6.367426534458	960
0	1381094	6.37473525149	961
0	1381741	6.376412089362	962
0	1384074	6.384461302428	963
0	1385932	6.389176964335	964
0	1386751	6.400897011574	965
0	1387384	6.402476334497	966
0	1388034	6.411896982237	967
0	1389032	6.414416680284	968
0	1391116	6.420089771346	969
0	1392908	6.426749321743	970
0	1396555	6.440705631042	971
0	1397226	6.445034612783	972
0	1397870	6.450589646455	973
0	1398514	6.452294887863	974
0	1399195	6.464710127304	975
0	1399833	6.466343434908	976
0	1405217	6.480651175567	977
0	1405561	6.481431310069	978
0	1407665	6.487688843431	979
0	1408312	6.489250114429	980
0	1409043	6.506337272373	981
0	1409676	6.509176296447	982
0	1410927	6.517699110075	983
0	1412520	6.521640544392	984
0	1414756	6.527477871105	985
0	1416623	6.531773013859	986
0	1419026	6.546774352501	987
0	1419656	6.548470618907	988
0	1420448	6.555968604085	989
0	1420612	6.556410604085	990
0	1421587	6.563929354483	991
0	1424917	6.574762821144	992
0	1427950	6.585830959647	993
0	1429436	6.589522262667	994
0	1430095	6.592609104967	995
0	1430761	6.596198688293	996
0	1431435	6.601513396543	997
0	1433059	6.616616643519	998
0	1435145	6.621870465271	999
0	1436347	6.629550041135	1000
0	1439172	6.636962945165	1001
0	1439577	6.63782432741	1002
0	1440961	6.640976329038	1003
0	1441960	6.652224920579	1004
0	1442602	6.659412167006	1005
0	1446207	6.674522127163	1006
0	1446863	6.677425039355	1007
0	1447505	6.679337679385	1008
0	1448313	6.681973699737	1009
0	1451773	6.695871726533	1010
0	1452445	6.703217473152	1011
0	1456046	6.717916448745	1012
0	1456859	6.720294779997	1013
0	1457182	6.720989899335	1014
0	1457986	6.723146222258	1015
0	1461608	6.738251150844	1016
0	1462288	6.743505315032	1017
0	1465699	6.757702680586	1018
0	1466522	6.761953239052	1019
0	1467171	6.76397166479	1020
0	1467816	6.765514985938	1021
0	1471599	6.781173666156	1022
0	1471915	6.781949785494	1023
0	1472806	6.793637283072	1024
0	1475158	6.801191461175	1025
0	1476999	6.806084334573	1026
0	1477663	6.809800726685	1027
0	1478363	6.819163848657	1028
0	1479012	6.822401912451	1029
0	1482576	6.832357172385	1030
0	1483256	6.837647135714	1031
0	1483923	6.841907018639	1032
0	1486309	6.851813817466	1033
0	1488274	6.86404195804	1034
0	1488605	6.864890136926	1035
0	1490331	6.869394396182	1036
0	1493166	6.879817516076	1037
0	1493647	6.880972876478	1038
0	1494499	6.89086686049	1039
0	1498072	6.903900994626	1040
0	1498715	6.905624351801	1041
0	1499378	6.909259790155	1042
0	1501448	6.917270049854	1043
0	1503119	6.92119662348	1044
0	1504362	6.933765185369	1045
0	1504995	6.941674549155	1046
0	1506587	6.946141269875	1047
0	1507561	6.948618046014	1048
0	1509883	6.958087466248	1049
0	1510547	6.961608410291	1050
0	1514316	6.978446312438	1051
0	1514481	6.978888312438	1052
0	1515476	6.985919849891	1053
0	1516316	6.991447776215	1054
0	1518245	6.996455610572	1055
0	1520344	7.001582933636	1056
0	1522870	7.018749540866	1057
0	1523832	7.021101374485	1058
0	1525357	7.027426704681	1059
0	1526038	7.032335699893	1060
0	1526705	7.038902315022	1061
0	1529155	7.045272697782	1062
0	1530996	7.05938281383	1063
0	1531629	7.060827148003	1064
0	1535203	7.071975429504	1065
0	1535866	7.075861356504	1066
0	1536537	7.08037967461	1067
0	1537186	7.084838448765	1068
0	1540690	7.100820934624	1069
0	1541409	7.102410440385	1070
0	1544162	7.111769678076	1071
0	1545771	7.118162174246	1072
0	1546098	7.118848353132	1073
0	1547065	7.12131185507	1074
0	1547782	7.142851786622	1075
0	1549017	7.146171109615	1076
0	1551535	7.152797497497	1077
0	1552535	7.155189305492	1078
0	1555028	7.161784935478	1079
0	1556370	7.164938133559	1080
0	1557630	7.179138585563	1081
0	1558263	7.184053217541	1082
0	1558896	7.187390151114	1083
0	1559545	7.192338974247	1084
0	1562353	7.19976653481	1085
0	1563594	7.202704805937	1086
0	1567410	7.217192767426	1087
0	1568061	7.219923256565	1088
0	1568756	7.227847701143	1089
0	1569409	7.235110080094	1090
0	1570049	7.237882547948	1091
0	1570948	7.243312870502	1092
0	1574267	7.252094093189	1093
0	1577119	7.26033377232	1094
0	1578546	7.264247167658	1095
0	1579249	7.27271668659	1096
0	1579906	7.278768496037	1097
0	1580539	7.281539243228	1098
0	1581465	7.291398240504	1099
0	1585149	7.304219207606	1100
0	1586493	7.307655534095	1101
0	1589053	7.31602576009	1102
0	1589728	7.320587573006	1103
0	1590378	7.322489614216	1104
0	1591068	7.335293750826	1105
0	1591788	7.342568374741	1106
0	1595265	7.352409461484	1107
0	1598021	7.359641151557	1108
0	1598847	7.361604818049	1109
0	1599915	7.364168662362	1110
0	1600921	7.379922752283	1111
0	1601549	7.381412086456	1112
0	1604015	7.394014572886	1113
0	1605670	7.397897300085	1114
0	1606403	7.399768561129	1115
0	1607048	7.401437939115	1116
0	1610754	7.420493043055	1117
0	1611238	7.421690720168	1118
0	1612062	7.433105758939	1119
0	1613127	7.438726454059	1120
0	1613861	7.440515424367	1121
0	1615603	7.445075766636	1122
0	1619671	7.45859132293	1123
0	1620017	7.459350666106	1124
0	1621904	7.472696792555	1125
0	1622543	7.480691320266	1126
0	1623180	7.482504561674	1127
0	1623825	7.48408382808	1128
0	1627415	7.495360856031	1129
0	1628520	7.500746591971	1130
0	1631748	7.516867355267	1131
0	1632391	7.518545626265	1132
0	1633024	7.521094108117	1133
0	1633657	7.52361635452	1134
0	1635206	7.533623454075	1135
0	1638629	7.545268309347	1136
0	1641528	7.553415551722	1137
0	1642199	7.557525670835	1138
0	1642856	7.560291106117	1139
0	1643505	7.562113372523	1140
0	1644202	7.576154512592	1141
0	1645696	7.583396537229	1142
0	1648403	7.591677337664	1143
0	1649578	7.59455348669	1144
0	1651362	7.599414952653	1145
0	1652439	7.601986834713	1146
0	1654012	7.61111916853	1147
0	1654699	7.625412538214	1148
0	1657385	7.632932043835	1149
0	1658542	7.63547502482	1150
0	1659553	7.640234132888	1151
0	1660200	7.641849510294	1152
0	1662107	7.651321751405	1153
0	1664502	7.66171578549	1154
0	1666310	7.676288380376	1155
0	1667671	7.680063506508	1156
0	1667833	7.680406506508	1157
0	1668470	7.681908983147	1158
0	1670641	7.687232922647	1159
0	1674461	7.706003604544	1160
0	1675162	7.715092569397	1161
0	1675811	7.717603099158	1162
0	1676444	7.719774706453	1163
0	1677082	7.722231064595	1164
0	1677710	7.723657501314	1165
0	1682170	7.749055020861	1166
0	1683916	7.753475472692	1167
0	1685589	7.757933522022	1168
0	1686246	7.760280068581	1169
0	1686897	7.762413283804	1170
0	1687546	7.764001720523	1171
0	1690840	7.786354472401	1172
0	1691727	7.788439285692	1173
0	1692501	7.795307701044	1174
0	1693171	7.79883038458	1175
0	1694403	7.80205452281	1176
0	1694889	7.803285946389	1177
0	1698892	7.82592143864	1178
0	1700293	7.829200643638	1179
0	1702216	7.834205506306	1180
0	1702971	7.837824448739	1181
0	1703640	7.841604761888	1182
0	1704309	7.846205815774	1183
0	1707911	7.862122390497	1184
0	1708594	7.868337006899	1185
0	1710174	7.876917993133	1186
0	1711073	7.879091669968	1187
0	1712637	7.882963190985	1188
0	1712799	7.883414190985	1189
0	1716705	7.899222279188	1190
0	1718464	7.905794510558	1191
0	1719169	7.91572059985	1192
0	1719812	7.917272922773	1193
0	1720445	7.918864916294	1194
0	1721078	7.920498205213	1195
0	1724256	7.936094186388	1196
0	1727609	7.948597286924	1197
0	1729185	7.954069020028	1198
0	1729507	7.954899139366	1199
0	1730313	7.956848462289	1200
0	1730966	7.958759375583	1201
0	1731689	7.979112132176	1202
0	1733699	7.986136933166	1203
0	1735880	7.991637135724	1204
0	1736527	7.993261396598	1205
0	1737175	7.995204377359	1206
0	1740542	8.003759949514	1207
0	1741530	8.014631856511	1208
0	1742170	8.021456435114	1209
0	1742819	8.028168582609	1210
0	1743894	8.031834368543	1211
0	1745133	8.035179415953	1212
0	1746892	8.0395463159	1213
0	1749516	8.051713208324	1214
0	1752002	8.063920266995	1215
0	1752667	8.070978771044	1216
0	1753300	8.072958628163	1217
0	1753949	8.0754636316	1218
0	1754582	8.077826798548	1219
0	1758231	8.094370718898	1220
0	1761697	8.104022377221	1221
0	1762596	8.115291440068	1222
0	1762923	8.116022687811	1223
0	1763393	8.117169076829	1224
0	1764338	8.119434707967	1225
0	1768102	8.136433269426	1226
0	1768942	8.14045983205	1227
0	1772389	8.152220481194	1228
0	1772874	8.153443140674	1229
0	1773695	8.15685529178	1230
0	1774343	8.158645353218	1231
0	1776325	8.173058447986	1232
0	1778415	8.178292595711	1233
0	1782139	8.194394916713	1234
0	1782863	8.196137281173	1235
0	1783339	8.197274648254	1236
0	1783827	8.198375817835	1237
0	1784889	8.214145277285	1238
0	1785522	8.216930881846	1239
0	1789096	8.231813945137	1240
0	1789741	8.23408704218	1241
0	1790399	8.236515610312	1242
0	1791304	8.238827378873	1243
0	1794721	8.255237141173	1244
0	1795368	8.256879448777	1245
0	1798850	8.274718999706	1246
0	1799410	8.276108503635	1247
0	1799574	8.276496503635	1248
0	1800871	8.279656241532	1249
0	1804431	8.29262440918	1250
0	1805168	8.296120350238	1251
0	1805883	8.309787620777	1252
0	1806521	8.316399164436	1253
0	1807236	8.318105566258	1254
0	1809257	8.323177432651	1255
0	1811593	8.333631708451	1256
0	1812945	8.337061964099	1257
0	1815723	8.352554618451	1258
0	1816364	8.358265613124	1259
0	1817156	8.360596858065	1260
0	1817318	8.361065858065	1261
0	1819786	8.374999992746	1262
0	1821872	8.380759959314	1263
0	1824745	8.394440264116	1264
0	1825804	8.397000285992	1265
0	1826703	8.399201852956	1266
0	1827438	8.40139490166	1267
0	1828175	8.41646469232	1268
0	1828813	8.418508828185	1269
0	1832408	8.43251042349	1270
0	1833069	8.436013755643	1271
0	1833716	8.437719016517	1272
0	1836869	8.447719345297	1273
0	1837961	8.453529952208	1274
0	1838614	8.45567246287	1275
0	1841890	8.472157077222	1276
0	1843077	8.480988364577	1277
0	1843399	8.481674483915	1278
0	1844213	8.484400915439	1279
0	1846179	8.494946870201	1280
0	1847068	8.497170661976	1281
0	1849155	8.509879725023	1282
0	1849802	8.516788366853	1283
0	1851735	8.522382042192	1284
0	1852543	8.524412474654	1285
0	1854660	8.530338727688	1286
0	1855323	8.533697662952	1287
0	1858979	8.553764512513	1288
0	1859624	8.555172833661	1289
0	1860288	8.563645322832	1290
0	1860939	8.565188689467	1291
0	1861581	8.566795023516	1292
0	1862214	8.570708961075	1293
0	1867161	8.592742977592	1294
0	1867647	8.593979231432	1295
0	1870104	8.603159682444	1296
0	1870913	8.605136017676	1297
0	1871237	8.605903137014	1298
0	1872052	8.608326186392	1299
0	1875674	8.629795540261	1300
0	1876528	8.635372757295	1301
0	1879833	8.644008455375	1302
0	1879995	8.644369455375	1303
0	1880653	8.645904001599	1304
0	1881866	8.648666672899	1305
0	1883550	8.666819439899	1306
0	1885891	8.672878987657	1307
0	1886836	8.679479486262	1308
0	1888102	8.682914446636	1309
0	1890971	8.690248184719	1310
0	1891621	8.691756831934	1311
0	1892520	8.70466163708	1312
0	1893153	8.713313601132	1313
0	1895521	8.72069226165	1314
0	1897192	8.724944053261	1315
0	1898003	8.726768836504	1316
0	1898649	8.728339203139	1317
0	1902344	8.745527703514	1318
0	1903001	8.751224297293	1319
0	1903640	8.755515107444	1320
0	1904304	8.763280420183	1321
0	1904774	8.764453742022	1322
0	1906354	8.768794922498	1323
0	1912171	8.789157756096	1324
0	1912493	8.789889003839	1325
0	1913296	8.791829486681	1326
0	1914136	8.800054476344	1327
0	1914781	8.80175085433	1328
0	1915429	8.806241600849	1329
0	1919449	8.827940138328	1330
0	1920786	8.831423401469	1331
0	1921607	8.833427004646	1332
0	1923923	8.839266475347	1333
0	1924573	8.841061853333	1334
0	1925228	8.843301581704	1335
0	1925958	8.867891519799	1336
0	1926591	8.86964789587	1337
0	1928943	8.876286319739	1338
0	1929839	8.878283195275	1339
0	1930750	8.880443193883	1340
0	1931154	8.881409522442	1341
0	1935806	8.907112889414	1342
0	1936439	8.913759410279	1343
0	1937072	8.91542878644	1344
0	1937716	8.917532821397	1345
0	1938354	8.920168506092	1346
0	1938987	8.922697511082	1347
0	1945609	8.94659554201	1348
0	1946281	8.950774084534	1349
0	1946920	8.952839086133	1350
0	1947744	8.962058587211	1351
0	1947909	8.962419587211	1352
0	1948867	8.965536218216	1353
0	1951612	8.984227513963	1354
0	1953614	8.989007121228	1355
0	1955481	8.993458188393	1356
0	1957392	9.001301870799	1357
0	1958042	9.00326453187	1358
0	1958693	9.005005745032	1359
0	1959396	9.022864472284	1360
0	1960029	9.029717256046	1361
0	1961539	9.034569059519	1362
0	1963030	9.038347389678	1363
0	1964617	9.042177877444	1364
0	1966317	9.04612354588	1365
0	1969219	9.059838982459	1366
0	1969877	9.069270204535	1367
0	1970526	9.072952578034	1368
0	1971180	9.080753719087	1369
0	1971808	9.082278985493	1370
0	1972457	9.084029293097	1371
0	1977874	9.099265112459	1372
0	1979687	9.107278651201	1373
0	1980372	9.113094513841	1374
0	1981023	9.119218650116	1375
0	1981656	9.122323458779	1376
0	1982305	9.124786296832	1377
0	1983418	9.136225575077	1378
0	1987666	9.146920153273	1379
0	1988582	9.149157796601	1380
0	1990827	9.157699070582	1381
0	1991478	9.159503404631	1382
0	1992128	9.161226712235	1383
0	1992834	9.177670948553	1384
0	1993467	9.181702514842	1385
0	1997043	9.192897042742	1386
0	1999450	9.199446259854	1387
0	2001041	9.203256727295	1388
0	2001697	9.204854156343	1389
0	2002651	9.213313391569	1390
0	2003331	9.224629972203	1391
0	2003964	9.228157414822	1392
0	2007550	9.241291878312	1393
0	2008214	9.244376580348	1394
0	2009121	9.246607260166	1395
0	2010278	9.249549324682	1396
0	2013158	9.263715551571	1397
0	2013812	9.266601529986	1398
0	2016103	9.280340471459	1399
0	2017171	9.282855470014	1400
0	2018684	9.288970564338	1401
0	2019348	9.292260510144	1402
0	2021757	9.302114096017	1403
0	2023506	9.306308740377	1404
0	2024304	9.315289374022	1405
0	2024958	9.322023009241	1406
0	2026468	9.326853615571	1407
0	2029196	9.337230208734	1408
0	2029862	9.340829868586	1409
0	2030531	9.348886066169	1410
0	2032464	9.354203708741	1411
0	2034748	9.360847459369	1412
0	2035420	9.365472175999	1413
0	2037905	9.374330391681	1414
0	2039666	9.37873610742	1415
0	2040395	9.391528837805	1416
0	2041028	9.393198126724	1417
0	2042273	9.401984034689	1418
0	2044807	9.408502488554	1419
0	2045924	9.416167973423	1420
0	2047715	9.421701860822	1421
0	2050185	9.430959274549	1422
0	2050834	9.432700563468	1423
0	2051541	9.44508438498	1424
0	2052174	9.448677454426	1425
0	2055748	9.460057541497	1426
0	2056069	9.460842743998	1427
0	2057108	9.471558666462	1428
0	2058690	9.475708179637	1429
0	2060862	9.480947152105	1430
0	2061978	9.486802409444	1431
0	2064041	9.499182791231	1432
0	2064597	9.5005583299	1433
0	2067010	9.506884787923	1434
0	2067895	9.516992044767	1435
0	2068059	9.517353044767	1436
0	2070729	9.525011262532	1437
0	2072827	9.540882023839	1438
0	2072989	9.541396023839	1439
0	2076086	9.550766793535	1440
0	2077080	9.553064538981	1441
0	2078181	9.559013453458	1442
0	2079224	9.566327103903	1443
0	2082452	9.576889488844	1444
0	2083100	9.578432811767	1445
0	2083810	9.588931434905	1446
0	2084447	9.590654865242	1447
0	2086799	9.59807022596	1448
0	2088703	9.608387485749	1449
0	2089371	9.616822161213	1450
0	2091222	9.622083202971	1451
0	2093406	9.627461547597	1452
0	2094225	9.629565142606	1453
0	2094893	9.633656858485	1454
0	2096548	9.644157246457	1455
0	2099179	9.654081815964	1456
0	2099867	9.660523277621	1457
0	2100505	9.663910301662	1458
0	2101158	9.670070456143	1459
0	2102576	9.673618825123	1460
0	2105383	9.682039333153	1461
0	2109015	9.698895427018	1462
0	2109651	9.700438687892	1463
0	2110300	9.702270054527	1464
0	2110982	9.708022277759	1465
0	2111651	9.711960146043	1466
0	2112662	9.719543599508	1467
0	2115935	9.735310898781	1468
0	2116259	9.736078146524	1469
0	2117734	9.739712153798	1470
0	2120792	9.747612178252	1471
0	2121439	9.749110535427	1472
0	2122176	9.763389294255	1473
0	2125734	9.775278857221	1474
0	2126379	9.776840178369	1475
0	2127030	9.779241696617	1476
0	2127749	9.790272769681	1477
0	2128469	9.792159113667	1478
0	2131993	9.807321512654	1479
0	2132651	9.810332826053	1480
0	2133290	9.816055881246	1481
0	2134026	9.818195673814	1482
0	2137523	9.828309472445	1483
0	2138172	9.83003282962	1484
0	2140521	9.844471976617	1485
0	2141646	9.847470942435	1486
0	2143280	9.858302964842	1487
0	2143937	9.860879774577	1488
0	2145870	9.869382665909	1489
0	2146954	9.872097750786	1490
0	2148819	9.88001365513	1491
0	2149148	9.880771857631	1492
0	2153139	9.901694680489	1493
0	2153619	9.902922040891	1494
0	2154418	9.90740329123	1495
0	2155051	9.90902807465	1496
0	2157175	9.916741670658	1497
0	2159204	9.921831553736	1498
0	2162960	9.942569373299	1499
0	2163620	9.944884059574	1500
0	2164104	9.946012448592	1501
0	2164741	9.947564815673	1502
0	2165671	9.957750019465	1503
0	2166920	9.96085506779	1504
0	2171847	9.984040623255	1505
0	2173303	9.98742593116	1506
0	2173465	9.98781393116	1507
0	2173956	9.988906222086	1508
0	2175356	9.993276493406	1509
0	2176022	9.996308355699	1510
1	0	0	0
2	0	0	0
3	0	0	0
3	6951	0.01652975104	1
3	14198	0.04208736872	2
3	25829	0.086864371199	3
3	32903	0.127611021008	4
3	38963	0.166312728435	5
3	48651	0.207228365948	6
3	57510	0.241710315708	7
3	67535	0.28625576594	8
3	75916	0.329936558119	9
3	84746	0.372996757613	10
3	92634	0.412330879074	11
3	102489	0.452592677131	12
3	112487	0.496607798394	13
3	121963	0.536692857324	14
3	127845	0.574340820074	15
3	134389	0.608411924524	16
3	145818	0.652262614314	17
3	157021	0.69626402974	18
3	166476	0.743044576934	19
3	172265	0.785513174272	20
3	180775	0.820553213305	21
3	190044	0.857399080577	22
3	197087	0.893482994125	23
3	205358	0.936973156274	24
3	213626	0.975692987568	25
3	223474	1.015746922369	26
3	232922	1.055058193737	27
3	239896	1.094967732282	28
3	246431	1.128594951445	29
3	255599	1.165832639061	30
3	263944	1.207061751641	31
3	272344	1.250251158232	32
3	281717	1.287878948893	33
3	290831	1.331642935701	34
3	299724	1.373613413394	35
3	307550	1.411198537268	36
3	316917	1.452988852477	37
3	326732	1.49221453582	38
3	334871	1.533907405314	39
3	344099	1.57528232795	40
3	353939	1.62041479145	41
3	360862	1.656998602772	42
3	370716	1.699656063777	43
3	380512	1.7382413961	44
3	388538	1.778204031289	45
3	397223	1.816593987883	46
3	403479	1.852601063959	47
3	413337	1.894284547419	48
3	423103	1.93074169835	49
3	431067	1.976137980179	50
3	437111	2.011153576972	51
3	446959	2.055926734005	52
3	456769	2.094039988263	53
3	460298	2.130136499125	54
3	469283	2.165645581775	55
3	479089	2.202541473699	56
3	488943	2.246745471923	57
3	497887	2.286086153558	58
3	507424	2.330953997566	59
3	515999	2.376591001498	60
3	523182	2.411778291303	61
3	531763	2.447155639646	62
3	541286	2.483802018762	63
3	548157	2.5213477552	64
3	555354	2.558915551348	65
3	565202	2.600052578323	66
3	574982	2.639167237489	67
3	584833	2.682987477334	68
3	593459	2.728412739133	69
3	600475	2.768613511108	70
3	608488	2.805136169753	71
3	618315	2.84399087867	72
3	627317	2.884937727295	73
3	632851	2.920923007601	74
3	641926	2.962767797468	75
3	651737	3.000485498166	76
3	658744	3.036161407312	77
3	665500	3.075416175954	78
3	675348	3.112201098554	79
3	684499	3.151068739209	80
3	694085	3.19463440792	81
3	700712	3.233893769386	82
3	708219	3.277404330779	83
3	718067	3.315450008442	84
3	728536	3.35875501966	85
3	738348	3.403447773103	86
3	745659	3.441999893456	87
3	755510	3.483443503227	88
3	763220	3.523360439368	89
3	772599	3.563251936062	90
3	781151	3.60012911887	91
3	789259	3.642252206666	92
3	798483	3.679036246962	93
3	808542	3.72404058677	94
3	815262	3.757912204251	95
3	823345	3.796925187846	96
3	831482	3.831783352848	97
3	841928	3.87762676392	98
3	847671	3.911727926941	99
3	857532	3.95038072226	100
3	865700	3.989920149126	101
3	875139	4.034510240928	102
3	881174	4.07243543251	103
3	891089	4.108833040138	104
3	900921	4.151622618113	105
3	910447	4.19162819576	106
3	916110	4.229839151788	107
3	924578	4.271658821159	108
3	934110	4.309704585196	109
3	942540	4.351821941601	110
3	947519	4.388134911347	111
3	957367	4.426542302365	112
3	967098	4.470320956847	113
3	972224	4.508359884502	114
3	981722	4.546029950329	115
3	991556	4.584816720823	116
3	1000327	4.622240945897	117
3	1007420	4.658295792597	118
3	1014527	4.697027793863	119
3	1024369	4.739783735217	120
3	1032998	4.777458588645	121
3	1040414	4.814830108835	122
3	1048710	4.855562524784	123
3	1058430	4.895123661996	124
3	1068238	4.932384157591	125
3	1077306	4.977711046785	126
3	1082002	5.013575469214	127
3	1090603	5.052224473605	128
3	1100450	5.094613860974	129
3	1110234	5.132923336591	130
3	1117169	5.171777463414	131
3	1126646	5.211924283488	132
3	1133265	5.252476065789	133
3	1145076	5.298206833542	134
3	1154304	5.33970569813	135
3	1164107	5.376612323197	136
3	1172245	5.418794526074	137
3	1181189	5.460608676663	138
3	1188386	5.501266838244	139
3	1198316	5.54357132077	140
3	1208214	5.581404213253	141
3	1217736	5.623467521416	142
3	1225536	5.663442333094	143
3	1235350	5.708385655282	144
3	1242795	5.747379387567	145
3	1251605	5.781922220765	146
3	1261088	5.82399835184	147
3	1268727	5.865361180138	148
3	1278186	5.904883986318	149
3	1285749	5.943356249631	150
3	1294856	5.978203453262	151
3	1302991	6.023286902936	152
3	1311635	6.058798074487	153
3	1321445	6.099190201272	154
3	1331293	6.142338577372	155
3	1338602	6.181045912283	156
3	1345075	6.21729237085	157
3	1354923	6.26082636152	158
3	1365416	6.302425794709	159
3	1375204	6.34115067933	160
3	1381430	6.375556419311	161
3	1388375	6.412754150058	162
3	1398368	6.451915936346	163
3	1408648	6.49005328225	164
3	1417138	6.53292847632	165
3	1425419	6.575945119789	166
3	1433558	6.617775982928	167
3	1442292	6.6531090884	168
3	1452108	6.696611894354	169
3	1461943	6.739000318665	170
3	1472409	6.783041953315	171
3	1478700	6.820075016478	172
3	1489095	6.866054304747	173
3	1498407	6.904803162447	174
3	1507086	6.947309732336	175
3	1515804	6.986705017712	176
3	1525693	7.028256872502	177
3	1535539	7.072859597325	178
3	1544674	7.112866189073	179
3	1552211	7.154304958976	180
3	1559224	7.188382318935	181
3	1569088	7.228713868964	182
3	1578878	7.264951335479	183
3	1587085	7.309118078808	184
3	1595692	7.353411763807	185
3	1604938	7.396028735455	186
3	1612390	7.43396292676	187
3	1622238	7.473589960376	188
3	1632719	7.519303794086	189
3	1642534	7.558301838656	190
3	1650177	7.596082997687	191
3	1659054	7.636809565855	192
3	1668974	7.683459511614	193
3	1677410	7.722935232416	194
3	1687882	7.764948888344	195
3	1693507	7.799759552401	196
3	1703976	7.842398929709	197
3	1711492	7.8800489527	198
3	1720778	7.919551084115	199
3	1729842	7.955684307187	200
3	1737517	7.99613354518	201
3	1745806	8.03669608004	202
3	1753632	8.073716795984	203
3	1764512	8.11976875645	204
3	1774031	8.157703459601	205
3	1784482	8.200036233399	206
3	1792082	8.240623158874	207
3	1800721	8.279214290015	208
3	1807829	8.319434036491	209
3	1817965	8.362600228387	210
3	1826378	8.398407766937	211
3	1833567	8.437241065	212
3	1843577	8.482053532398	213
3	1850130	8.517582534674	214
3	1859475	8.554838882144	215
3	1868308	8.595693570841	216
3	1876009	8.630535708082	217
3	1883967	8.667788730772	218
3	1892848	8.705500804901	219
3	1902680	8.746474871335	220
3	1912989	8.791107265484	221
3	1920217	8.829992881333	222
3	1926919	8.870532063691	223
3	1936772	8.9145535781	224
3	1946615	8.951586252355	225
3	1954469	8.990921032053	226
3	1960357	9.030619423867	227
3	1970214	9.070190372356	228
3	1980023	9.108171819022	229
3	1988097	9.147886436005	230
3	1993882	9.182758817165	231
3	2003659	9.225586140024	232
3	2013494	9.264653719392	233
3	2023926	9.307293079786	234
3	2031116	9.350223762879	235
3	2041356	9.394127294545	236
3	2051170	9.433485731289	237
3	2057529	9.472533968785	238
3	2067345	9.507804955744	239
3	2076930	9.552631587464	240
3	2084775	9.591503033063	241
3	2094559	9.630494310427	242
3	2101491	9.670792623964	243
3	2111987	9.712880313864	244
3	2121127	9.748388346073	245
3	2128323	9.79167216215	246
3	2138507	9.830808997441	247
3	2147616	9.873709603657	248
3	2154746	9.908188459051	249
3	2165069	9.948304983494	250
3	2174447	9.989998389907	251
4	0	0	0
5	0	0	0
6	0	0	0
6	6631	0.015672826265	1
6	15628	0.04562497154	2
6	23093	0.080343985879	3
6	31662	0.124484125387	4
6	37850	0.16280958597	5
6	47541	0.204608661984	6
6	58353	0.247394746313	7
6	68930	0.289523764824	8
6	74628	0.326688969004	9
6	82911	0.368835435332	10
6	91356	0.40421533747	11
6	101156	0.443367229005	12
6	110027	0.485973042537	13
6	115690	0.521591096477	14
6	124953	0.566610501074	15
6	135826	0.612075500474	16
6	145189	0.649640800935	17
6	155074	0.690159009802	18
6	159954	0.726992863853	19
6	167647	0.762777437628	20
6	177486	0.798767006786	21
6	185042	0.838737885208	22
6	191370	0.877557315772	23
6	201218	0.913740989351	24
6	211058	0.958825255101	25
6	221493	1.002990725193	26
6	229084	1.045599717384	27
6	235289	1.079488171985	28
6	244969	1.117481141419	29
6	254928	1.161310581344	30
6	261816	1.199759844679	31
6	268711	1.23486938173	32
6	278575	1.276940449468	33
6	288406	1.317421290362	34
6	297879	1.360264200567	35
6	305158	1.400679391273	36
6	314959	1.438947052597	37
6	322988	1.481089997977	38
6	331477	1.519765349509	39
6	339694	1.562800130221	40
6	349077	1.60716806049	41
6	358239	1.642346246382	42
6	369356	1.686916789462	43
6	376271	1.724201606024	44
6	384258	1.765882140918	45
6	392668	1.803734376108	46
6	402195	1.844846418345	47
6	412054	1.887238760585	48
6	423268	1.931183773575	49
6	428340	1.969469031692	50
6	436482	2.009215343744	51
6	446172	2.052141088336	52
6	453608	2.086420264057	53
6	458806	2.121284230112	54
6	468654	2.159015347485	55
6	478438	2.19998961596	56
6	488282	2.242388595977	57
6	495328	2.279549386038	58
6	504488	2.323660422191	59
6	511940	2.36515843064	60
6	523028	2.411273366528	61
6	533034	2.453195686308	62
6	542858	2.490489683777	63
6	549064	2.524124716052	64
6	556765	2.56745601415	65
6	565839	2.604028717528	66
6	575688	2.647340340127	67
6	585503	2.687097170459	68
6	594796	2.731555273332	69
6	599917	2.767322336171	70
6	609125	2.807926682329	71
6	618973	2.851252885308	72
6	628765	2.889293459688	73
6	636503	2.929881357765	74
6	642563	2.96586736129	75
6	652411	3.004289878644	76
6	662209	3.046159372213	77
6	670142	3.091246747688	78
6	677049	3.130308924765	79
6	685865	3.169622351613	80
6	696188	3.214067166222	81
6	706260	3.254827006665	82
6	716199	3.298135526275	83
6	722365	3.338215705252	84
6	729850	3.373319026001	85
6	739664	3.408610998656	86
6	749850	3.452758916829	87
6	757712	3.494521051497	88
6	766981	3.532722549188	89
6	773922	3.573911067844	90
6	783765	3.615500959276	91
6	793601	3.659199185145	92
6	800571	3.69485878655	93
6	810332	3.737274538857	94
6	820055	3.780335586568	95
6	827254	3.817658284405	96
6	836440	3.855245553718	97
6	843389	3.891584878623	98
6	852411	3.929565641912	99
6	860152	3.966027969197	100
6	869317	4.00048763162	101
6	879149	4.044149374183	102
6	887317	4.08779298211	103
6	893374	4.124357008359	104
6	902872	4.167016680095	105
6	912736	4.211962857691	106
6	922595	4.248191137345	107
6	929021	4.290109544271	108
6	936365	4.328940324266	109
6	946241	4.373836793448	110
6	955047	4.413403565749	111
6	959983	4.450869022887	112
6	969963	4.490135413343	113
6	979787	4.533198900654	114
6	988049	4.572127756073	115
6	996558	4.612693403584	116
6	1004417	4.650724111918	117
6	1013231	4.685793837561	118
6	1023023	4.730165154613	119
6	1030127	4.769645805928	120
6	1039740	4.81057581338	121
6	1048227	4.854339954796	122
6	1057648	4.893012300502	123
6	1066312	4.927880154088	124
6	1074342	4.970475652627	125
6	1082339	5.014445678941	126
6	1091872	5.055472991091	127
6	1101720	5.098015289689	128
6	1111240	5.138277818578	129
6	1119382	5.177985032649	130
6	1127298	5.213476478051	131
6	1135667	5.258371155009	132
6	1143798	5.292655644395	133
6	1153642	5.335217413987	134
6	1163456	5.374834870562	135
6	1170824	5.415394274434	136
6	1177431	5.450863241612	137
6	1187076	5.485570687356	138
6	1197012	5.529891643563	139
6	1206528	5.57020774751	140
6	1213739	5.610213614169	141
6	1220678	5.645144721441	142
6	1230526	5.689516546498	143
6	1240440	5.732957741414	144
6	1250755	5.775357472783	145
6	1257858	5.812007261513	146
6	1267010	5.851415778512	147
6	1275520	5.893147020447	148
6	1284425	5.936410486073	149
6	1294039	5.97560192271	150
6	1300481	6.008289169514	151
6	1310291	6.048843847419	152
6	1318173	6.088359299206	153
6	1327025	6.128699812531	154
6	1334381	6.169490110599	155
6	1343797	6.205559492976	156
6	1353613	6.244452060866	157
6	1361800	6.286511048342	158
6	1370326	6.327372866284	159
6	1377410	6.364953646064	160
6	1387088	6.40163725462	161
6	1397564	6.445783855829	162
6	1406474	6.483448992504	163
6	1411351	6.518758524709	164
6	1421111	6.557574847131	165
6	1430434	6.593484348013	166
6	1440731	6.640345227303	167
6	1447837	6.680266922431	168
6	1458318	6.723922465304	169
6	1468157	6.766417228984	170
6	1478003	6.810504969731	171
6	1487566	6.854741186084	172
6	1494840	6.891679103536	173
6	1504694	6.934640428415	174
6	1514976	6.980079555484	175
6	1524507	7.022856923621	176
6	1531333	7.060096056876	177
6	1541743	7.103132683431	178
6	1549520	7.147474524249	179
6	1558595	7.184964460587	180
6	1568399	7.220726499611	181
6	1577803	7.26217052676	182
6	1585486	7.304941450652	183
6	1592383	7.343950904286	184
6	1601881	7.382197329502	185
6	1611417	7.422087843876	186
6	1620431	7.46035608074	187
6	1627754	7.496380099077	188
6	1635800	7.535021102958	189
6	1644534	7.577173755638	190
6	1654352	7.611976411576	191
6	1662447	7.652043994451	192
6	1671151	7.68856957153	193
6	1678044	7.72457774436	194
6	1687241	7.76318952685	195
6	1695067	7.803710070097	196
6	1703313	7.838744691785	197
6	1713802	7.885649214737	198
6	1720303	7.918450040002	199
6	1730653	7.957705705335	200
6	1736381	7.992882520306	201
6	1744402	8.033020914001	202
6	1754281	8.076410874646	203
6	1763888	8.118297403038	204
6	1773056	8.153858264382	205
6	1784165	8.199170060881	206
6	1790080	8.234989285226	207
6	1800565	8.27884436524	208
6	1806215	8.310725863823	209
6	1816061	8.353411861497	210
6	1825574	8.396422238112	211
6	1832747	8.433376666536	212
6	1842304	8.473149491856	213
6	1849493	8.510601968069	214
6	1859965	8.556138076707	215
6	1867979	8.594827474478	216
6	1877215	8.636876601618	217
6	1886398	8.674106361527	218
6	1893487	8.714143844178	219
6	1903333	8.752036540339	220
6	1913478	8.792244610389	221
6	1921219	8.832380779017	222
6	1926290	8.868685762845	223
6	1936138	8.90792513246	224
6	1945950	8.947479785056	225
6	1952026	8.985193928597	226
6	1959728	9.02376671533	227
6	1969559	9.060642225505	228
6	1978385	9.100286609381	229
6	1983920	9.137367075677	230
6	1993166	9.178528191599	231
6	2002992	9.214179634615	232
6	2010781	9.250744698552	233
6	2019691	9.29318975319	234
6	2029535	9.33803345178	235
6	2038328	9.375170806315	236
6	2046265	9.417070216469	237
6	2056401	9.461654987044	238
6	2065665	9.503085567354	239
6	2073633	9.542840266885	240
6	2082798	9.57758473189	241
6	2089794	9.617968538761	242
6	2099519	9.65492105901	243
6	2109506	9.7000958116	244
[...]
89	1492639	6.875427699557	0.003582681646
89	1502110	6.918801545361	0.001903760308
89	1502727	6.920309157541	0.003411372488
89	1503781	6.922900011871	0.006002226818
89	1512625	6.971480293152	0.001000457286
89	1513153	6.972698905332	0.002219069466
89	1513661	6.974179650165	0.003699814299
89	1522713	7.018305294608	0.001500552959
89	1524256	7.022231553655	0.005426812006
89	1524850	7.024008994247	0.007204252598
89	1533665	7.06702313478	0.001090457286
89	1534264	7.068548916699	0.002616239205
89	1534702	7.069821357291	0.003888679797
89	1543583	7.110448028902	0.001301459135
89	1544758	7.113120028834	0.003973459067
89	1545268	7.114321641014	0.005175071247
89	1554866	7.16130468922	0.001199606203
89	1556046	7.164176715713	0.004071632696
89	1556889	7.166172447231	0.006067364214
89	1565891	7.212723693682	0.001036457286
89	1566503	7.214195305862	0.002508069466
89	1566929	7.215224746454	0.003537510058
89	1576361	7.258412822941	0.000973459135
89	1577459	7.261184022292	0.003744658486
89	1578055	7.262898462884	0.005459099078
89	1587515	7.310287394398	0.000973457286
89	1588114	7.311813176317	0.002499239205
89	1588541	7.312833616909	0.003519679797
89	1597351	7.357955301908	0.000820457286
89	1598612	7.361042571791	0.003907727169
89	1600017	7.364454550606	0.007319705984
89	1609148	7.408148812092	0.000838459135
89	1609679	7.409610424272	0.002300071315
89	1610203	7.411172169105	0.003861816148
89	1619018	7.457030165491	0.001126457286
89	1620663	7.460881093019	0.004977384814
89	1621335	7.462740837852	0.006837129647
89	1630155	7.504901016995	0.000946457286
89	1630681	7.506164627326	0.002210067617
89	1631193	7.507366409245	0.003411849536
89	1640004	7.548783438747	0.000883459135
89	1640358	7.549720744837	0.001820765225
89	1641041	7.551446661258	0.003546681646
89	1651462	7.599623840897	0.001632544314
89	1652789	7.602792013883	0.0048007173
89	1653470	7.604444626063	0.00645332948
89	1662957	7.653519561373	0.001036457286
89	1663474	7.654918343292	0.002435239205
89	1663982	7.656309088125	0.003825984038
89	1672955	7.701564722377	0.000883459135
89	1673554	7.703153334557	0.002472071315
89	1673980	7.704236775149	0.003555511907
89	1683595	7.752687091932	0.001298604354
89	1684668	7.755403995038	0.00401550746
89	1685096	7.75650543563	0.005116948052
89	1696497	7.807508170385	0.000937457286
89	1697104	7.809069952304	0.002499239205
89	1697541	7.810306392896	0.003735679797
89	1706377	7.85552990165	0.000910457286
89	1706992	7.857064683569	0.002445239205
89	1707418	7.858364124161	0.003744679797
89	1716307	7.898235841073	0.000856457286
89	1717539	7.901070934187	0.0036915504
89	1717965	7.902280374779	0.004900990992
89	1726862	7.946955471013	0.001274457286
89	1727707	7.948815175168	0.003134161441
89	1728527	7.950972996569	0.005291982842
89	1739263	8.000750349305	0.000856459135
89	1739876	8.002159131224	0.002265241054
89	1740643	8.004054837758	0.004160947588
89	1750444	8.05433491612	0.001072457286
89	1751043	8.055977698039	0.002715239205
89	1751469	8.057079138631	0.003816679797
89	1760292	8.10047731081	0.000910457286
89	1760814	8.101723092729	0.002156239205
89	1761387	8.103244059084	0.00367720556
89	1770839	8.145454772385	0.001036457286
89	1771365	8.146700384565	0.002282069466
89	1771880	8.148045996745	0.003627681646
89	1780719	8.191024347307	0.000892459135
89	1781146	8.192070787899	0.001938899727
89	1781749	8.193390400079	0.003258511907
89	1793119	8.243785185319	0.001036459135
89	1793730	8.245238967238	0.002490241054
89	1794161	8.24643040783	0.003681681646
89	1802995	8.289038038271	0.001072459135
89	1803348	8.289831344361	0.001865765225
89	1804195	8.291990162922	0.004024583786
89	1814125	8.340286962821	0.000847457286
89	1814724	8.34181274474	0.002373239205
89	1815154	8.343049185332	0.003609679797
89	1824005	8.392735168631	0.001018457286
89	1824925	8.39493839475	0.003221683405
89	1826461	8.398612606698	0.006895895353
89	1835768	8.445197230287	0.000811457286
89	1836542	8.447002964537	0.002617191536
89	1837458	8.449322790409	0.004937017408
89	1847251	8.497524684722	0.002011788396
89	1848162	8.499682611171	0.004169714845
89	1848591	8.500964051763	0.005451155437
89	1857443	8.544822152465	0.000964459135
89	1857960	8.546094764645	0.002237071315
89	1858468	8.547512509478	0.003654816148
89	1868557	8.596357813518	0.001217555961
89	1869156	8.597712595437	0.00257233788
89	1869586	8.598769036029	0.003628778472
89	1878418	8.640439625751	0.000829457286
89	1878943	8.64194640767	0.002336239205
89	1880253	8.64492654612	0.005316377655
89	1889551	8.686703542227	0.000865457286
89	1890078	8.688093154407	0.002255069466
89	1890656	8.689532802587	0.003694717646
89	1900748	8.734869336055	0.000847457286
89	1901280	8.736285948235	0.002264069466
89	1901803	8.737694558566	0.003672679797
89	1910608	8.781695898085	0.000811457286
89	1911221	8.783248680004	0.002364239205
89	1911658	8.784341120596	0.003456679797
89	1922379	8.835435693454	0.001379662683
89	1922910	8.836717305634	0.002661274863
89	1923435	8.837882915965	0.003826885194
89	1934178	8.889252376224	0.000793457286
89	1934709	8.890506986555	0.002048067617
89	1935231	8.891915596886	0.003456677948
89	1943074	8.936035030747	0.002246404981
89	1944373	8.939086757705	0.005298131939
89	1945073	8.940838500709	0.007049874943
89	1954045	8.989993431222	0.002893507352
89	1955668	8.993812207461	0.006712283591
89	1956690	8.996123159686	0.009023235816
89	1962714	9.037551058241	0.000892457286
89	1964296	9.041443326945	0.00478472599
89	1965487	9.044184624352	0.007526023397
89	1974501	9.090841147098	0.001045459135
89	1975032	9.092257757429	0.002462069466
89	1975558	9.093576502262	0.003780814299
89	1985279	9.141148570849	0.001445099913
89	1986312	9.143694255931	0.003990784995
89	1986914	9.145203167562	0.005499696626
89	1995506	9.187257358964	0.000829459135
89	1996036	9.188619971144	0.002192071315
89	1996544	9.189983715977	0.003555816148
89	2006004	9.234376954884	0.000883457286
89	2006533	9.235712567064	0.002219069466
89	2007041	9.237004179244	0.003510681646
89	2016201	9.280693359703	0.00192432166
89	2017587	9.283862891574	0.005093853531
89	2018175	9.285532332166	0.006763294123
89	2027643	9.329772539574	0.000757457286
89	2028160	9.331198151754	0.002183069466
89	2028680	9.332642896587	0.003627814299
89	2037666	9.373678145423	0.00137065119
89	2038669	9.375989068996	0.003681574763
89	2039181	9.377496679327	0.005189185094
89	2048637	9.423981568618	0.000901457286
89	2049236	9.425525350537	0.002445239205
89	2049674	9.426707791129	0.003627679797
89	2059783	9.478308065341	0.001217553489
89	2060541	9.480122771345	0.003032259493
89	2061456	9.482451534823	0.005361022971
89	2070572	9.524666016274	0.00128051649
89	2071657	9.527104205778	0.003718705994
89	2072095	9.52832264637	0.004937146586
89	2080926	9.570923695592	0.000847457286
89	2081271	9.571717001682	0.001640763376
89	2081951	9.573424918103	0.003348679797
89	2092056	9.624163956758	0.000739457286
89	2092573	9.625409568938	0.001985069466
89	2093248	9.627026301339	0.003601801867
89	2103851	9.676961905987	0.001027459135
89	2104368	9.678369687906	0.002435241054
89	2104880	9.679751469825	0.003817022973
89	2114364	9.724635193046	0.000847457286
89	2114963	9.726223974965	0.002436239205
89	2115389	9.727244415557	0.003456679797
89	2124212	9.770532097544	0.001135457286
89	2124639	9.771560538136	0.002163897878
89	2125239	9.773033150316	0.003636510058
89	2135991	9.823542598991	0.000991459135
89	2136336	9.824425905081	0.001874765225
89	2137023	9.826115823351	0.003564683495
89	2146797	9.871770504528	0.001740812494
89	2147788	9.874288615006	0.004258922972
89	2148301	9.875580359839	0.005550667805
89	2157768	9.91825398433	0.002092578473
89	2158203	9.919318424922	0.003157019065
89	2158814	9.920818037102	0.004656631245
89	2168265	9.96442442604	0.000928457286
89	2168610	9.96522673213	0.001730763376
89	2169290	9.96698834431	0.003492375556
90	848924	3.916125180051	-197242.71710279
90	874314	4.016125180051	240000
90	901553	4.116125180051	360000
90	917777	4.216125180051	240000
90	935070	4.316125180051	240000
90	958652	4.416125180051	360000
90	976792	4.516125180051	240000
90	1002910	4.616125180051	360000
90	1020640	4.716125180051	240000
90	1046005	4.816125180051	360000
90	1062049	4.916125180051	240000
90	1088641	5.016125180051	360000
90	1105458	5.116125180051	240000
90	1132567	5.216125180051	360000
90	1152932	5.316125180051	240000
90	1176562	5.416125180051	360000
90	1202868	5.516125180051	360000
90	1219952	5.616125180051	240000
90	1245954	5.716125180051	360000
90	1262060	5.816125180051	240000
90	1286907	5.916125180051	360000
90	1304832	6.016125180051	240000
90	1332761	6.116125180051	360000
90	1350010	6.216125180051	240000
90	1376017	6.316125180051	360000
90	1393235	6.416125180051	240000
90	1419497	6.516125180051	360000
90	1436675	6.616125180051	240000
90	1456368	6.716125180051	240000
90	1482897	6.816125180051	360000
90	1505310	6.916125180051	360000
90	1523421	7.016125180051	240000
90	1548097	7.116125180051	360000
90	1567729	7.216125180051	240000
90	1591383	7.316125180051	360000
90	1611712	7.416125180051	240000
90	1638951	7.516125180051	360000
90	1655101	7.616125180051	240000
90	1682658	7.716125180051	360000
90	1700950	7.816125180051	240000
90	1728177	7.916125180051	360000
90	1742485	8.016125180051	240000
90	1769442	8.116125180051	360000
90	1785837	8.216125180051	240000
90	1812263	8.316125180051	360000
90	1828490	8.416125180051	240000
90	1854983	8.516125180051	360000
90	1881387	8.616125180051	360000
90	1896088	8.716125180051	240000
90	1922025	8.816125180051	360000
90	1938036	8.916125180051	240000
90	1965644	9.016125180051	360000
90	1981338	9.116125180051	240000
90	2007875	9.216125180051	360000
90	2025273	9.316125180051	240000
90	2051856	9.416125180051	360000
90	2068539	9.516125180051	240000
90	2095217	9.616125180051	360000
90	2121762	9.716125180051	360000
90	2137850	9.816125180051	240000
90	2164582	9.916125180051	360000
90	2176443	10	286140.70366521
91	857533	3.95038072226	-198359.590068
91	881175	4.05038072226	240000
91	900922	4.15038072226	240000
91	924579	4.25038072226	360000
91	942541	4.35038072226	240000
91	967099	4.45038072226	360000
91	991557	4.55038072226	360000
91	1007421	4.65038072226	240000
91	1032999	4.75038072226	360000
91	1048711	4.85038072226	240000
91	1077307	4.95038072226	360000
91	1090604	5.05038072226	240000
91	1117170	5.15038072226	360000
91	1133266	5.25038072226	240000
91	1164108	5.35038072226	360000
91	1181190	5.45038072226	240000
91	1208215	5.55038072226	360000
91	1225537	5.65038072226	240000
91	1251606	5.75038072226	360000
91	1268728	5.85038072226	240000
91	1294857	5.95038072226	360000
91	1311636	6.05038072226	240000
91	1338603	6.15038072226	360000
91	1354924	6.25038072226	240000
91	1381431	6.35038072226	360000
91	1398369	6.45038072226	240000
91	1425420	6.55038072226	360000
91	1442293	6.65038072226	240000
91	1472410	6.75038072226	360000
91	1489096	6.85038072226	240000
91	1515805	6.95038072226	360000
91	1535540	7.05038072226	240000
91	1552212	7.15038072226	240000
91	1578879	7.25038072226	360000
91	1595693	7.35038072226	240000
91	1622239	7.45038072226	360000
91	1642535	7.55038072226	240000
91	1668975	7.65038072226	360000
91	1687883	7.75038072226	240000
91	1711493	7.85038072226	360000
91	1729843	7.95038072226	240000
91	1753633	8.05038072226	360000
91	1774032	8.15038072226	240000
91	1800722	8.25038072226	360000
91	1817966	8.35038072226	240000
91	1843578	8.45038072226	360000
91	1859476	8.55038072226	240000
91	1883968	8.65038072226	360000
91	1912990	8.75038072226	360000
91	1926920	8.85038072226	240000
91	1946616	8.95038072226	240000
91	1970215	9.05038072226	360000
91	1993883	9.15038072226	360000
91	2013495	9.25038072226	240000
91	2041357	9.35038072226	360000
91	2057530	9.45038072226	240000
91	2076931	9.55038072226	240000
91	2101492	9.65038072226	360000
91	2128324	9.75038072226	360000
91	2147617	9.85038072226	240000
91	2174448	9.95038072226	360000
91	2176443	10	241841.48876327
92	859673	3.964890767746	-198836.50052044
92	889445	4.064890767746	240000
92	904815	4.164890767746	240000
92	932973	4.264890767746	360000
92	946885	4.364890767746	240000
92	970607	4.464890767746	360000
92	990880	4.564890767746	240000
92	1016361	4.664890767746	360000
92	1034809	4.764890767746	240000
92	1057955	4.864890767746	360000
92	1075919	4.964890767746	240000
92	1099808	5.064890767746	360000
92	1117010	5.164890767746	240000
92	1143152	5.264890767746	360000
92	1166339	5.364890767746	360000
92	1186402	5.464890767746	240000
92	1209495	5.564890767746	360000
92	1227923	5.664890767746	240000
92	1253562	5.764890767746	360000
92	1271208	5.864890767746	240000
92	1297384	5.964890767746	360000
92	1313430	6.064890767746	240000
92	1342146	6.164890767746	360000
92	1357012	6.264890767746	240000
92	1384670	6.364890767746	360000
92	1399527	6.464890767746	240000
92	1428446	6.564890767746	360000
92	1452772	6.664890767746	360000
92	1472247	6.764890767746	240000
92	1489339	6.864890767746	240000
92	1516900	6.964890767746	360000
92	1536201	7.064890767746	240000
92	1564013	7.164890767746	360000
92	1580233	7.264890767746	240000
92	1607381	7.364890767746	360000
92	1624152	7.464890767746	240000
92	1653123	7.564890767746	360000
92	1669134	7.664890767746	240000
92	1692146	7.764890767746	360000
92	1717456	7.864890767746	360000
92	1732016	7.964890767746	240000
92	1758566	8.064890767746	360000
92	1776827	8.164890767746	240000
92	1805501	8.264890767746	360000
92	1822204	8.364890767746	240000
92	1846839	8.464890767746	360000
92	1862541	8.564890767746	240000
92	1892118	8.664890767746	360000
92	1914471	8.764890767746	360000
92	1932000	8.864890767746	240000
92	1957726	8.964890767746	360000
92	1972148	9.064890767746	240000
92	2002280	9.164890767746	360000
92	2019017	9.264890767746	240000
92	2035753	9.364890767746	240000
92	2062313	9.464890767746	360000
92	2079551	9.564890767746	240000
92	2105717	9.664890767746	360000
92	2132325	9.764890767746	360000
92	2149481	9.864890767746	240000
92	2176356	9.964890767746	360000
92	2176443	10	341790.44170448
93	860153	3.966027969197	-198873.9745352
93	887318	4.066027969197	240000
93	902873	4.166027969197	240000
93	929022	4.266027969197	360000
93	946242	4.366027969197	240000
93	969964	4.466027969197	360000
93	988050	4.566027969197	240000
93	1013232	4.666027969197	360000
93	1030128	4.766027969197	240000
93	1057649	4.866027969197	360000
93	1074343	4.966027969197	240000
93	1101721	5.066027969197	360000
93	1119383	5.166027969197	240000
93	1143799	5.266027969197	360000
93	1163457	5.366027969197	240000
93	1187077	5.466027969197	360000
93	1206529	5.566027969197	240000
93	1230527	5.666027969197	360000
93	1250756	5.766027969197	240000
93	1275521	5.866027969197	360000
93	1294040	5.966027969197	240000
93	1318174	6.066027969197	360000
93	1334382	6.166027969197	240000
93	1361801	6.266027969197	360000
93	1387089	6.366027969197	360000
93	1406475	6.466027969197	240000
93	1430435	6.566027969197	360000
93	1447838	6.666027969197	240000
93	1468158	6.766027969197	240000
93	1494841	6.866027969197	360000
93	1514977	6.966027969197	240000
93	1541744	7.066027969197	360000
93	1558596	7.166027969197	240000
93	1585487	7.266027969197	360000
93	1601882	7.366027969197	240000
93	1627755	7.466027969197	360000
93	1644535	7.566027969197	240000
93	1671152	7.666027969197	360000
93	1695068	7.766027969197	360000
93	1713803	7.866027969197	240000
93	1736382	7.966027969197	360000
93	1754282	8.066027969197	240000
93	1784166	8.166027969197	360000
93	1800566	8.266027969197	240000
93	1825575	8.366027969197	360000
93	1842305	8.466027969197	240000
93	1867980	8.566027969197	360000
93	1886399	8.666027969197	240000
93	1913479	8.766027969197	360000
93	1926291	8.866027969197	240000
93	1952027	8.966027969197	360000
93	1978386	9.066027969197	360000
93	1993167	9.166027969197	240000
93	2019692	9.266027969197	360000
93	2038329	9.366027969197	240000
93	2065666	9.466027969197	360000
93	2082799	9.566027969197	240000
93	2109507	9.666027969197	360000
93	2126720	9.766027969197	240000
93	2153958	9.866027969197	360000
93	2174707	9.966027969197	240000
93	2176443	10	353231.75319093
94	863735	3.984194889536	-199474.54712466
94	890385	4.084194889536	240000
94	914186	4.184194889536	360000
94	934423	4.284194889536	240000
94	948149	4.384194889536	240000
94	972063	4.484194889536	360000
94	997459	4.584194889536	360000
94	1014046	4.684194889536	240000
94	1041053	4.784194889536	360000
94	1056689	4.884194889536	240000
94	1081443	4.984194889536	360000
94	1101401	5.084194889536	240000
94	1128254	5.184194889536	360000
94	1144753	5.284194889536	240000
94	1170984	5.384194889536	360000
94	1187734	5.484194889536	240000
94	1216853	5.584194889536	360000
94	1231939	5.684194889536	240000
94	1257196	5.784194889536	360000
94	1275355	5.884194889536	240000
94	1301137	5.984194889536	360000
94	1321123	6.084194889536	240000
94	1344598	6.184194889536	360000
94	1364057	6.284194889536	240000
94	1387709	6.384194889536	360000
94	1413269	6.484194889536	360000
94	1431094	6.584194889536	240000
94	1457674	6.684194889536	360000
94	1477330	6.784194889536	240000
94	1501773	6.884194889536	360000
94	1520677	6.984194889536	240000
94	1537515	7.084194889536	240000
94	1562849	7.184194889536	360000
94	1590062	7.284194889536	360000
94	1606739	7.384194889536	240000
94	1632242	7.484194889536	360000
94	1649003	7.584194889536	240000
94	1676769	7.684194889536	360000
94	1692835	7.784194889536	240000
94	1719505	7.884194889536	360000
94	1736857	7.984194889536	240000
94	1763569	8.084194889536	360000
94	1782709	8.184194889536	240000
94	1809749	8.284194889536	360000
94	1827122	8.384194889536	240000
94	1852953	8.484194889536	360000
94	1870762	8.584194889536	240000
94	1891795	8.684194889536	240000
94	1915115	8.784194889536	360000
94	1937397	8.884194889536	360000
94	1956337	8.984194889536	240000
94	1980699	9.084194889536	360000
94	1997639	9.184194889536	240000
94	2022689	9.284194889536	360000
94	2048210	9.384194889536	360000
94	2065336	9.484194889536	240000
94	2091547	9.584194889536	360000
94	2109984	9.684194889536	240000
94	2132982	9.784194889536	360000
94	2159616	9.884194889536	360000
94	2175689	9.984194889536	240000
94	2176443	10	759248.09430044
95	868291	3.996310979995	-199877.10822487
95	892346	4.096310979995	240000
95	912010	4.196310979995	240000
95	935715	4.296310979995	360000
95	951343	4.396310979995	240000
95	976132	4.496310979995	360000
95	992242	4.596310979995	240000
95	1018896	4.696310979995	360000
95	1035528	4.796310979995	240000
95	1062700	4.896310979995	360000
95	1089295	4.996310979995	360000
95	1106957	5.096310979995	240000
95	1123247	5.196310979995	240000
95	1149073	5.296310979995	360000
95	1175291	5.396310979995	360000
95	1190657	5.496310979995	240000
95	1218546	5.596310979995	360000
95	1234348	5.696310979995	240000
95	1262706	5.796310979995	360000
95	1279793	5.896310979995	240000
95	1305977	5.996310979995	360000
95	1322114	6.096310979995	240000
95	1349277	6.196310979995	360000
95	1364752	6.296310979995	240000
95	1389603	6.396310979995	360000
95	1415341	6.496310979995	360000
95	1431758	6.596310979995	240000
95	1457508	6.696310979995	360000
95	1475984	6.796310979995	240000
95	1503690	6.896310979995	360000
95	1518828	6.996310979995	240000
95	1546423	7.096310979995	360000
95	1569728	7.196310979995	360000
95	1589379	7.296310979995	240000
95	1606246	7.396310979995	240000
95	1633343	7.496310979995	360000
95	1652022	7.596310979995	240000
95	1675485	7.696310979995	360000
95	1695537	7.796310979995	240000
95	1721397	7.896310979995	360000
95	1741042	7.996310979995	240000
95	1764815	8.096310979995	360000
95	1783511	8.196310979995	240000
95	1807081	8.296310979995	360000
95	1827765	8.396310979995	240000
95	1852388	8.496310979995	360000
95	1871727	8.596310979995	240000
95	1898333	8.696310979995	360000
95	1915748	8.796310979995	240000
95	1939310	8.896310979995	360000
95	1958534	8.996310979995	240000
95	1981983	9.096310979995	360000
95	1999776	9.196310979995	240000
95	2024630	9.296310979995	360000
95	2050517	9.396310979995	360000
95	2068783	9.496310979995	240000
95	2093820	9.596310979995	360000
95	2110627	9.696310979995	240000
95	2134433	9.796310979995	360000
95	2154104	9.896310979995	240000
95	2176443	9.996310979995	360000
95	2176443	10	0

