version 3
run MixedTCP4UDP4-0-20241031-18:00:32-14592
attr configname MixedTCP4UDP4
attr datetime 20241031-18:00:32
attr datetimef 20241031-180032
attr experiment MixedTCP4UDP4
attr inifile omnetpp.ini
attr iterationvars ""
attr iterationvarsd ""
attr iterationvarsf ""
attr measurement ""
attr network MixedWLAN
attr processid 14592
attr repetition 0
attr replication #0
attr resultdir results
attr runnumber 0
attr seedset 0
config image-path ../../inet4.5/images
config **.numHostsTCP 5
config **.numHostsUDP 5
config network MixedWLAN
config sim-time-limit 10s
config **.mac.**.vector-recording false
config **.mac.**.bin-recording false
config **.tcp.**.vector-recording false
config **.tcp.**.bin-recording false
config **.radio.**.vector-recording false
config **.radio.**.bin-recording false
config **.constraintAreaMinX 0m
config **.constraintAreaMinY 0m
config **.constraintAreaMinZ 0m
config **.constraintAreaMaxX 50m
config **.constraintAreaMaxY 50m
config **.constraintAreaMaxZ 0m
config **.ap.wlan[*].address "\"10:00:00:00:00:00\""
config **.*host*.**.mgmt.accessPointAddress "\"10:00:00:00:00:00\""
config **.numApps 1
config **.udphost[0].app[*].typename UdpEchoApp
config **.udphost[0].app[*].localPort 3088
config **.udphost[*].app[*].typename UdpBasicApp
config **.udphost[*].app[*].destAddresses "\"udphost[0]\""
config **.udphost[*].app[*].messageLength 1500B
config **.udphost[*].app[*].sendInterval "40ms + uniform(-5ms, 5ms)"
config **.udphost[*].app[*].destPort 3088
config **.udphost[*].app[*].startTime 0s
config **.udphost[*].app[*].stopTime -1s
config **.tcphost[0].numApps 1
config **.tcphost[0].app[*].typename TcpGenericServerApp
config **.tcphost[0].app[0].localPort 1000
config **.tcphost[0].app[0].active true
config **.tcphost[*].numApps 1
config **.tcphost[*].app[*].typename TcpBasicClientApp
config **.tcphost[*].app[0].active true
config **.tcphost[*].app[0].connectAddress "\"tcphost[0]\""
config **.tcphost[*].app[0].connectPort 1000
config **.tcphost[*].app[0].startTime 0s
config **.tcphost[*].app[0].stopTime -1s
config **.tcphost[*].app[0].thinkTime 0s
config **.tcphost[*].app[0].idleInterval "40ms + uniform(-5ms, 5ms)"
config **.tcphost[*].app[0].reconnectInterval 0s
config **.tcphost[*].app[0].numRequestsPerSession 1
config **.tcphost[*].app[0].requestLength 1500B
config **.tcphost[*].app[0].replyLength 1500B
config **.wlan[*].bitrate 433.3Mbps
config **.wlan[*].mac.dcf.channelAccess.pendingQueue.packetCapacity 40
config **.wlan[*].mac.dcf.channelAccess.cwMin 20
config **.bandName "\"5 GHz (20 MHz)\""
config **.opMode "\"ac\""
config **.wlan[*].radio.antenna.numAntennas 8
config **.wlan[*].radio.transmitter.power 10mW
config **.wlan[*].radio.transmitter.headerLength 192b
config **.wlan[*].radio.transmitter.centerFrequency 5GHz
config **.wlan[*].radio.receiver.sensitivity -85dBm
config **.wlan[*].radio.receiver.snirThreshold 4dB

vector 0 MixedWLAN.udphost[0].udp passedUpPk:vector(count) ETV
attr interpolationmode none
attr recordingmode vector(count)
attr source packetSentToUpper
attr title "packets passed up, count"
vector 1 MixedWLAN.udphost[0].udp droppedPkWrongPort:vector(count) ETV
attr interpolationmode none
attr recordingmode vector(count)
attr source packetDropReasonIsNoPortFound(packetDropped)
attr title "packets dropped (wrong port), count"
vector 2 MixedWLAN.udphost[0].udp droppedPkBadChecksum:vector(count) ETV
attr interpolationmode none
attr recordingmode vector(count)
attr source packetDropReasonIsIncorrectlyReceived(packetDropped)
attr title "packets dropped (checksum error), count"
vector 3 MixedWLAN.udphost[1].udp passedUpPk:vector(count) ETV
attr interpolationmode none
attr recordingmode vector(count)
attr source packetSentToUpper
attr title "packets passed up, count"
vector 4 MixedWLAN.udphost[1].udp droppedPkWrongPort:vector(count) ETV
attr interpolationmode none
attr recordingmode vector(count)
attr source packetDropReasonIsNoPortFound(packetDropped)
attr title "packets dropped (wrong port), count"
vector 5 MixedWLAN.udphost[1].udp droppedPkBadChecksum:vector(count) ETV
attr interpolationmode none
attr recordingmode vector(count)
attr source packetDropReasonIsIncorrectlyReceived(packetDropped)
attr title "packets dropped (checksum error), count"
vector 6 MixedWLAN.udphost[2].udp passedUpPk:vector(count) ETV
attr interpolationmode none
attr recordingmode vector(count)
attr source packetSentToUpper
attr title "packets passed up, count"
vector 7 MixedWLAN.udphost[2].udp droppedPkWrongPort:vector(count) ETV
attr interpolationmode none
attr recordingmode vector(count)
attr source packetDropReasonIsNoPortFound(packetDropped)
attr title "packets dropped (wrong port), count"
vector 8 MixedWLAN.udphost[2].udp droppedPkBadChecksum:vector(count) ETV
attr interpolationmode none
attr recordingmode vector(count)
attr source packetDropReasonIsIncorrectlyReceived(packetDropped)
attr title "packets dropped (checksum error), count"
vector 9 MixedWLAN.udphost[3].udp passedUpPk:vector(count) ETV
attr interpolationmode none
attr recordingmode vector(count)
attr source packetSentToUpper
attr title "packets passed up, count"
vector 10 MixedWLAN.udphost[3].udp droppedPkWrongPort:vector(count) ETV
attr interpolationmode none
attr recordingmode vector(count)
attr source packetDropReasonIsNoPortFound(packetDropped)
attr title "packets dropped (wrong port), count"
vector 11 MixedWLAN.udphost[3].udp droppedPkBadChecksum:vector(count) ETV
attr interpolationmode none
attr recordingmode vector(count)
attr source packetDropReasonIsIncorrectlyReceived(packetDropped)
attr title "packets dropped (checksum error), count"
vector 12 MixedWLAN.udphost[4].udp passedUpPk:vector(count) ETV
attr interpolationmode none
attr recordingmode vector(count)
attr source packetSentToUpper
attr title "packets passed up, count"
vector 13 MixedWLAN.udphost[4].udp droppedPkWrongPort:vector(count) ETV
attr interpolationmode none
attr recordingmode vector(count)
attr source packetDropReasonIsNoPortFound(packetDropped)
attr title "packets dropped (wrong port), count"
vector 14 MixedWLAN.udphost[4].udp droppedPkBadChecksum:vector(count) ETV
attr interpolationmode none
attr recordingmode vector(count)
attr source packetDropReasonIsIncorrectlyReceived(packetDropped)
attr title "packets dropped (checksum error), count"
vector 15 MixedWLAN.tcphost[0].udp passedUpPk:vector(count) ETV
attr interpolationmode none
attr recordingmode vector(count)
attr source packetSentToUpper
attr title "packets passed up, count"
vector 16 MixedWLAN.tcphost[0].udp droppedPkWrongPort:vector(count) ETV
attr interpolationmode none
attr recordingmode vector(count)
attr source packetDropReasonIsNoPortFound(packetDropped)
attr title "packets dropped (wrong port), count"
vector 17 MixedWLAN.tcphost[0].udp droppedPkBadChecksum:vector(count) ETV
attr interpolationmode none
attr recordingmode vector(count)
attr source packetDropReasonIsIncorrectlyReceived(packetDropped)
attr title "packets dropped (checksum error), count"
vector 18 MixedWLAN.tcphost[1].udp passedUpPk:vector(count) ETV
attr interpolationmode none
attr recordingmode vector(count)
attr source packetSentToUpper
attr title "packets passed up, count"
vector 19 MixedWLAN.tcphost[1].udp droppedPkWrongPort:vector(count) ETV
attr interpolationmode none
attr recordingmode vector(count)
attr source packetDropReasonIsNoPortFound(packetDropped)
attr title "packets dropped (wrong port), count"
vector 20 MixedWLAN.tcphost[1].udp droppedPkBadChecksum:vector(count) ETV
attr interpolationmode none
attr recordingmode vector(count)
attr source packetDropReasonIsIncorrectlyReceived(packetDropped)
attr title "packets dropped (checksum error), count"
vector 21 MixedWLAN.tcphost[1].app[0] numActiveSessions:vector ETV
attr autoWarmupFilter false
attr interpolationmode sample-hold
attr recordingmode vector
attr source warmup(sum(connect))
attr title "number of active sessions"
vector 22 MixedWLAN.tcphost[2].udp passedUpPk:vector(count) ETV
attr interpolationmode none
attr recordingmode vector(count)
attr source packetSentToUpper
attr title "packets passed up, count"
vector 23 MixedWLAN.tcphost[2].udp droppedPkWrongPort:vector(count) ETV
attr interpolationmode none
attr recordingmode vector(count)
attr source packetDropReasonIsNoPortFound(packetDropped)
attr title "packets dropped (wrong port), count"
vector 24 MixedWLAN.tcphost[2].udp droppedPkBadChecksum:vector(count) ETV
attr interpolationmode none
attr recordingmode vector(count)
attr source packetDropReasonIsIncorrectlyReceived(packetDropped)
attr title "packets dropped (checksum error), count"
vector 25 MixedWLAN.tcphost[2].app[0] numActiveSessions:vector ETV
attr autoWarmupFilter false
attr interpolationmode sample-hold
attr recordingmode vector
attr source warmup(sum(connect))
attr title "number of active sessions"
vector 26 MixedWLAN.tcphost[3].udp passedUpPk:vector(count) ETV
attr interpolationmode none
attr recordingmode vector(count)
attr source packetSentToUpper
attr title "packets passed up, count"
vector 27 MixedWLAN.tcphost[3].udp droppedPkWrongPort:vector(count) ETV
attr interpolationmode none
attr recordingmode vector(count)
attr source packetDropReasonIsNoPortFound(packetDropped)
attr title "packets dropped (wrong port), count"
vector 28 MixedWLAN.tcphost[3].udp droppedPkBadChecksum:vector(count) ETV
attr interpolationmode none
attr recordingmode vector(count)
attr source packetDropReasonIsIncorrectlyReceived(packetDropped)
attr title "packets dropped (checksum error), count"
vector 29 MixedWLAN.tcphost[3].app[0] numActiveSessions:vector ETV
attr autoWarmupFilter false
attr interpolationmode sample-hold
attr recordingmode vector
attr source warmup(sum(connect))
attr title "number of active sessions"
vector 30 MixedWLAN.tcphost[4].udp passedUpPk:vector(count) ETV
attr interpolationmode none
attr recordingmode vector(count)
attr source packetSentToUpper
attr title "packets passed up, count"
vector 31 MixedWLAN.tcphost[4].udp droppedPkWrongPort:vector(count) ETV
attr interpolationmode none
attr recordingmode vector(count)
attr source packetDropReasonIsNoPortFound(packetDropped)
attr title "packets dropped (wrong port), count"
vector 32 MixedWLAN.tcphost[4].udp droppedPkBadChecksum:vector(count) ETV
attr interpolationmode none
attr recordingmode vector(count)
attr source packetDropReasonIsIncorrectlyReceived(packetDropped)
attr title "packets dropped (checksum error), count"
vector 33 MixedWLAN.tcphost[4].app[0] numActiveSessions:vector ETV
attr autoWarmupFilter false
attr interpolationmode sample-hold
attr recordingmode vector
attr source warmup(sum(connect))
attr title "number of active sessions"
vector 34 MixedWLAN.udphost[1].app[0] packetSent:vector(packetBytes) ETV
attr interpolationmode none
attr recordingmode vector(packetBytes)
attr source packetSent
attr title "packets sent, packetBytes"
vector 35 MixedWLAN.udphost[2].app[0] packetSent:vector(packetBytes) ETV
attr interpolationmode none
attr recordingmode vector(packetBytes)
attr source packetSent
attr title "packets sent, packetBytes"
vector 36 MixedWLAN.udphost[3].app[0] packetSent:vector(packetBytes) ETV
attr interpolationmode none
attr recordingmode vector(packetBytes)
attr source packetSent
attr title "packets sent, packetBytes"
vector 37 MixedWLAN.udphost[4].app[0] packetSent:vector(packetBytes) ETV
attr interpolationmode none
attr recordingmode vector(packetBytes)
attr source packetSent
attr title "packets sent, packetBytes"
vector 38 MixedWLAN.udphost[1].udp packetSent:vector(packetBytes) ETV
attr interpolationmode none
attr recordingmode vector(packetBytes)
attr source packetSent
attr title "packets sent, packetBytes"
vector 39 MixedWLAN.udphost[2].udp packetSent:vector(packetBytes) ETV
attr interpolationmode none
attr recordingmode vector(packetBytes)
attr source packetSent
attr title "packets sent, packetBytes"
vector 40 MixedWLAN.udphost[3].udp packetSent:vector(packetBytes) ETV
attr interpolationmode none
attr recordingmode vector(packetBytes)
attr source packetSent
attr title "packets sent, packetBytes"
vector 41 MixedWLAN.udphost[4].udp packetSent:vector(packetBytes) ETV
attr interpolationmode none
attr recordingmode vector(packetBytes)
attr source packetSent
attr title "packets sent, packetBytes"
vector 42 MixedWLAN.udphost[1].ipv4.arp arpRequestSent:vector(packetBytes) ETV
attr recordingmode vector(packetBytes)
attr source arpRequestSent
attr title "ARP request sent, packetBytes"
vector 43 MixedWLAN.udphost[2].ipv4.arp arpRequestSent:vector(packetBytes) ETV
attr recordingmode vector(packetBytes)
attr source arpRequestSent
attr title "ARP request sent, packetBytes"
vector 44 MixedWLAN.udphost[3].ipv4.arp arpRequestSent:vector(packetBytes) ETV
attr recordingmode vector(packetBytes)
attr source arpRequestSent
attr title "ARP request sent, packetBytes"
vector 45 MixedWLAN.udphost[4].ipv4.arp arpRequestSent:vector(packetBytes) ETV
attr recordingmode vector(packetBytes)
attr source arpRequestSent
attr title "ARP request sent, packetBytes"
vector 46 MixedWLAN.tcphost[1].ipv4.arp arpRequestSent:vector(packetBytes) ETV
attr recordingmode vector(packetBytes)
attr source arpRequestSent
attr title "ARP request sent, packetBytes"
vector 47 MixedWLAN.tcphost[2].ipv4.arp arpRequestSent:vector(packetBytes) ETV
attr recordingmode vector(packetBytes)
attr source arpRequestSent
attr title "ARP request sent, packetBytes"
vector 48 MixedWLAN.tcphost[3].ipv4.arp arpRequestSent:vector(packetBytes) ETV
attr recordingmode vector(packetBytes)
attr source arpRequestSent
attr title "ARP request sent, packetBytes"
vector 49 MixedWLAN.tcphost[4].ipv4.arp arpRequestSent:vector(packetBytes) ETV
attr recordingmode vector(packetBytes)
attr source arpRequestSent
attr title "ARP request sent, packetBytes"
vector 50 MixedWLAN.tcphost[0].ipv4.arp arpReplySent:vector(packetBytes) ETV
attr recordingmode vector(packetBytes)
attr source arpReplySent
attr title "ARP replies sent, packetBytes"
vector 51 MixedWLAN.udphost[0].ipv4.arp arpReplySent:vector(packetBytes) ETV
attr recordingmode vector(packetBytes)
attr source arpReplySent
attr title "ARP replies sent, packetBytes"
vector 52 MixedWLAN.udphost[0].udp packetReceived:vector(packetBytes) ETV
attr interpolationmode none
attr recordingmode vector(packetBytes)
attr source packetReceived
attr title "packets received, packetBytes"
vector 53 MixedWLAN.udphost[0].app[0] echoedPk:vector(packetBytes) ETV
attr interpolationmode none
attr recordingmode vector(packetBytes)
attr source packetSent
attr title "packets echoed, packetBytes"
vector 54 MixedWLAN.udphost[0].udp packetSent:vector(packetBytes) ETV
attr interpolationmode none
attr recordingmode vector(packetBytes)
attr source packetSent
attr title "packets sent, packetBytes"
vector 55 MixedWLAN.udphost[1].udp packetReceived:vector(packetBytes) ETV
attr interpolationmode none
attr recordingmode vector(packetBytes)
attr source packetReceived
attr title "packets received, packetBytes"
vector 56 MixedWLAN.udphost[1].app[0] packetReceived:vector(packetBytes) ETV
attr interpolationmode none
attr recordingmode vector(packetBytes)
attr source packetReceived
attr title "packets received, packetBytes"
vector 57 MixedWLAN.udphost[1].app[0] rcvdPkLifetime:vector ETV
attr interpolationmode none
attr recordingmode vector
attr source dataAge(packetReceived)
attr title "received packet lifetime"
attr unit s
vector 58 MixedWLAN.udphost[1].app[0] rcvdPkSeqNo:vector ETV
attr interpolationmode none
attr recordingmode vector
attr source appPkSeqNo(packetReceived)
attr title "received packet sequence number"
vector 59 MixedWLAN.udphost[2].udp packetReceived:vector(packetBytes) ETV
attr interpolationmode none
attr recordingmode vector(packetBytes)
attr source packetReceived
attr title "packets received, packetBytes"
vector 60 MixedWLAN.udphost[2].app[0] packetReceived:vector(packetBytes) ETV
attr interpolationmode none
attr recordingmode vector(packetBytes)
attr source packetReceived
attr title "packets received, packetBytes"
vector 61 MixedWLAN.udphost[2].app[0] rcvdPkLifetime:vector ETV
attr interpolationmode none
attr recordingmode vector
attr source dataAge(packetReceived)
attr title "received packet lifetime"
attr unit s
vector 62 MixedWLAN.udphost[2].app[0] rcvdPkSeqNo:vector ETV
attr interpolationmode none
attr recordingmode vector
attr source appPkSeqNo(packetReceived)
attr title "received packet sequence number"
vector 63 MixedWLAN.udphost[3].udp packetReceived:vector(packetBytes) ETV
attr interpolationmode none
attr recordingmode vector(packetBytes)
attr source packetReceived
attr title "packets received, packetBytes"
vector 64 MixedWLAN.udphost[3].app[0] packetReceived:vector(packetBytes) ETV
attr interpolationmode none
attr recordingmode vector(packetBytes)
attr source packetReceived
attr title "packets received, packetBytes"
vector 65 MixedWLAN.udphost[3].app[0] rcvdPkLifetime:vector ETV
attr interpolationmode none
attr recordingmode vector
attr source dataAge(packetReceived)
attr title "received packet lifetime"
attr unit s
vector 66 MixedWLAN.udphost[3].app[0] rcvdPkSeqNo:vector ETV
attr interpolationmode none
attr recordingmode vector
attr source appPkSeqNo(packetReceived)
attr title "received packet sequence number"
vector 67 MixedWLAN.tcphost[3].app[0] packetSent:vector(packetBytes) ETV
attr interpolationmode none
attr recordingmode vector(packetBytes)
attr source packetSent
attr title "packets sent, packetBytes"
vector 68 MixedWLAN.udphost[4].udp packetReceived:vector(packetBytes) ETV
attr interpolationmode none
attr recordingmode vector(packetBytes)
attr source packetReceived
attr title "packets received, packetBytes"
vector 69 MixedWLAN.udphost[4].app[0] packetReceived:vector(packetBytes) ETV
attr interpolationmode none
attr recordingmode vector(packetBytes)
attr source packetReceived
attr title "packets received, packetBytes"
vector 70 MixedWLAN.udphost[4].app[0] rcvdPkLifetime:vector ETV
attr interpolationmode none
attr recordingmode vector
attr source dataAge(packetReceived)
attr title "received packet lifetime"
attr unit s
vector 71 MixedWLAN.udphost[4].app[0] rcvdPkSeqNo:vector ETV
attr interpolationmode none
attr recordingmode vector
attr source appPkSeqNo(packetReceived)
attr title "received packet sequence number"
vector 72 MixedWLAN.tcphost[1].app[0] packetSent:vector(packetBytes) ETV
attr interpolationmode none
attr recordingmode vector(packetBytes)
attr source packetSent
attr title "packets sent, packetBytes"
vector 73 MixedWLAN.tcphost[4].app[0] packetSent:vector(packetBytes) ETV
attr interpolationmode none
attr recordingmode vector(packetBytes)
attr source packetSent
attr title "packets sent, packetBytes"
vector 74 MixedWLAN.tcphost[2].app[0] packetSent:vector(packetBytes) ETV
attr interpolationmode none
attr recordingmode vector(packetBytes)
attr source packetSent
attr title "packets sent, packetBytes"
vector 75 MixedWLAN.tcphost[0].app[0] packetReceived:vector(packetBytes) ETV
attr interpolationmode none
attr recordingmode vector(packetBytes)
attr source packetReceived
attr title "packets received, packetBytes"
vector 76 MixedWLAN.tcphost[0].app[0] endToEndDelay:vector ETV
attr interpolationmode none
attr recordingmode vector
attr source dataAge(packetReceived)
attr title "end-to-end delay"
attr unit s
vector 77 MixedWLAN.tcphost[0].app[0] packetSent:vector(packetBytes) ETV
attr interpolationmode none
attr recordingmode vector(packetBytes)
attr source packetSent
attr title "packets sent, packetBytes"
vector 78 MixedWLAN.tcphost[3].app[0] packetReceived:vector(packetBytes) ETV
attr interpolationmode none
attr recordingmode vector(packetBytes)
attr source packetReceived
attr title "packets received, packetBytes"
vector 79 MixedWLAN.tcphost[3].app[0] endToEndDelay:vector ETV
attr interpolationmode none
attr recordingmode vector
attr source dataAge(packetReceived)
attr title "end-to-end delay"
attr unit s
vector 80 MixedWLAN.tcphost[1].app[0] packetReceived:vector(packetBytes) ETV
attr interpolationmode none
attr recordingmode vector(packetBytes)
attr source packetReceived
attr title "packets received, packetBytes"
vector 81 MixedWLAN.tcphost[1].app[0] endToEndDelay:vector ETV
attr interpolationmode none
attr recordingmode vector
attr source dataAge(packetReceived)
attr title "end-to-end delay"
attr unit s
vector 82 MixedWLAN.tcphost[4].app[0] packetReceived:vector(packetBytes) ETV
attr interpolationmode none
attr recordingmode vector(packetBytes)
attr source packetReceived
attr title "packets received, packetBytes"
vector 83 MixedWLAN.tcphost[4].app[0] endToEndDelay:vector ETV
attr interpolationmode none
attr recordingmode vector
attr source dataAge(packetReceived)
attr title "end-to-end delay"
attr unit s
vector 84 MixedWLAN.tcphost[2].app[0] packetReceived:vector(packetBytes) ETV
attr interpolationmode none
attr recordingmode vector(packetBytes)
attr source packetReceived
attr title "packets received, packetBytes"
vector 85 MixedWLAN.tcphost[2].app[0] endToEndDelay:vector ETV
attr interpolationmode none
attr recordingmode vector
attr source dataAge(packetReceived)
attr title "end-to-end delay"
attr unit s
vector 86 MixedWLAN.udphost[3].app[0] throughput:vector ETV
attr recordingmode vector
attr source throughput(packetReceived)
attr title throughput
attr unit bps
vector 87 MixedWLAN.udphost[2].app[0] throughput:vector ETV
attr recordingmode vector
attr source throughput(packetReceived)
attr title throughput
attr unit bps
vector 88 MixedWLAN.udphost[4].app[0] throughput:vector ETV
attr recordingmode vector
attr source throughput(packetReceived)
attr title throughput
attr unit bps
vector 89 MixedWLAN.udphost[1].app[0] throughput:vector ETV
attr recordingmode vector
attr source throughput(packetReceived)
attr title throughput
attr unit bps
0	0	0	0
0	3503	0.008304109413	1
0	3819	0.009053228751	2
0	3981	0.009387228751	3
0	4982	0.011584111114	4
0	16089	0.03756966393	5
0	17886	0.041402374154	6
0	18612	0.043117894321	7
0	18935	0.043966013659	8
0	21692	0.079344959938	9
0	22090	0.080359213778	10
0	23726	0.084307451434	11
0	24138	0.085318660655	12
0	34622	0.117127462405	13
0	35271	0.118634796578	14
0	35913	0.120196233297	15
0	36383	0.121396555136	16
0	44412	0.158670824934	17
0	45402	0.160887759506	18
0	46152	0.162567285141	19
0	46649	0.163708810316	20
0	54717	0.192779186048	21
0	55366	0.195337861547	22
0	56041	0.200520675694	23
0	56694	0.203056790375	24
0	67793	0.232268662648	25
0	69921	0.237512803729	26
0	70613	0.244150094555	27
0	71261	0.245747415703	28
0	74925	0.267622421326	29
0	77455	0.274646138325	30
0	82348	0.286519480345	31
0	82755	0.287475778569	32
0	89365	0.308891216157	33
0	90070	0.31872681016	34
0	90716	0.32816778246	35
0	91202	0.329395149541	36
0	101295	0.353712379955	37
0	104562	0.36138177657	38
0	105240	0.366034446876	39
0	105911	0.370031556285	40
0	109747	0.396314035208	41
0	113441	0.404901024226	42
0	114105	0.406460762832	43
0	116992	0.413157229686	44
0	121360	0.432177712159	45
0	124251	0.443593063649	46
0	125561	0.446907373515	47
0	126247	0.453049154102	48
0	131567	0.47068311776	49
0	136542	0.482296001554	50
0	137298	0.485966607739	51
0	140496	0.49637480264	52
0	142590	0.51495887389	53
0	146285	0.524123607108	54
0	149284	0.531351771484	55
0	152357	0.538801002584	56
0	156372	0.553325840588	57
0	157021	0.555411589104	58
0	160629	0.574753759033	59
0	161642	0.578269327364	60
0	167333	0.592380186979	61
0	169999	0.599356622792	62
0	172190	0.610946674974	63
0	174392	0.616491628484	64
0	180351	0.634087683596	65
0	183638	0.643536101067	66
0	186552	0.651361683778	67
0	187309	0.655472264839	68
0	190934	0.673067918918	69
0	193141	0.679089900296	70
0	197904	0.691377315584	71
0	200064	0.699158876699	72
0	203467	0.716574301236	73
0	204534	0.719159088108	74
0	209356	0.732767954311	75
0	212717	0.742332602668	76
0	216682	0.752675509151	77
0	217619	0.757726984879	78
0	221149	0.770635166042	79
0	223753	0.783164575217	80
0	227253	0.792287902186	81
0	228577	0.795406392173	82
0	235506	0.813088784115	83
0	236531	0.818878577757	84
0	237929	0.830873630672	85
0	239415	0.834799023424	86
0	246807	0.857013865707	87
0	247861	0.859627487585	88
0	251389	0.868147454853	89
0	252350	0.874891911174	90
0	258242	0.894957987432	91
0	259559	0.898284043148	92
0	261615	0.903805759946	93
0	265492	0.913171133167	94
0	270467	0.931764616336	95
0	273297	0.939929298592	96
0	274728	0.945061186668	97
0	278658	0.958848056734	98
0	282940	0.975276501494	99
0	285629	0.981955109972	100
0	286119	0.983120467744	101
0	290003	0.993564751106	102
0	295899	1.018474667754	103
0	296638	1.020164287583	104
0	297798	1.023015891315	105
0	302660	1.039099925451	106
0	305300	1.059088576877	107
0	307016	1.063538877875	108
0	307420	1.064541144281	109
0	312737	1.077204832841	110
0	319825	1.10343764266	111
0	320630	1.105360141371	112
0	320952	1.106037260709	113
0	322681	1.119969729321	114
0	331140	1.141121840056	115
0	332228	1.143623717834	116
0	332886	1.145132228922	117
0	336275	1.157737058068	118
0	340629	1.178788792198	119
0	341629	1.181157485349	120
0	342980	1.184459933356	121
0	347124	1.19405042029	122
0	351541	1.217234966564	123
0	352174	1.218823227438	124
0	354802	1.230099953812	125
0	354964	1.230460953812	126
0	364978	1.254232706768	127
0	366714	1.262872149387	128
0	367385	1.266851485428	129
0	368026	1.270757398531	130
0	373891	1.290391295104	131
0	378879	1.302052013786	132
0	382054	1.310137571308	133
0	382378	1.310877690646	134
0	386199	1.330990036204	135
0	386887	1.338393309246	136
0	389945	1.345659670836	137
0	393778	1.354395662774	138
0	399100	1.370019433871	139
0	401434	1.380800053082	140
0	402107	1.386764245719	141
0	402756	1.393947374377	142
0	409595	1.414400321395	143
0	412518	1.421207199631	144
0	416235	1.430308608717	145
0	417363	1.43767339365	146
0	418051	1.447949115714	147
0	418692	1.455511335421	148
0	426791	1.474655882992	149
0	427286	1.475776240764	150
0	432493	1.490359582349	151
0	433190	1.496620301953	152
0	435837	1.513840003993	153
0	436895	1.516492842816	154
0	440747	1.52638594847	155
0	445076	1.536792688406	156
0	448393	1.549998198218	157
0	449063	1.554010538451	158
0	452744	1.569636827856	159
0	455481	1.576628104509	160
0	458344	1.588663915033	161
0	461284	1.595824185021	162
0	464252	1.607069113059	163
0	465270	1.61104057934	164
0	471309	1.627932449671	165
0	472119	1.630222190448	166
0	476626	1.648581029167	167
0	478151	1.65262932221	168
0	484067	1.67200567848	169
0	484628	1.673288078302	170
0	487302	1.683540236549	171
0	488930	1.692298119161	172
0	496363	1.710255571176	173
0	498155	1.715630202838	174
0	499269	1.720910936138	175
0	501995	1.728037714464	176
0	505470	1.749658310881	177
0	509745	1.759490115894	178
0	510085	1.760231413195	179
0	513076	1.767699554684	180
0	517660	1.788777842295	181
0	518299	1.798186920951	182
0	518942	1.799703134113	183
0	520506	1.804907107873	184
0	529056	1.825425692382	185
0	532931	1.835187873904	186
0	533413	1.836343126658	187
0	534267	1.842883072174	188
0	537792	1.861881101125	189
0	542618	1.873977446222	190
0	545640	1.881217140707	191
0	546769	1.884494296759	192
0	549661	1.902932994567	193
0	552026	1.915682713823	194
0	553688	1.919724217748	195
0	555905	1.924552275077	196
0	564201	1.947212493236	197
0	564904	1.958125395451	198
0	565539	1.962480600428	199
0	566172	1.966581298518	200
0	575151	1.987435455244	201
0	579407	1.999597534177	202
0	580076	2.003492009984	203
0	580404	2.004304212485	204
0	585176	2.028825331077	205
0	590728	2.042166674991	206
0	591563	2.043935142063	207
0	592811	2.046724388744	208
0	595994	2.065208418567	209
0	599455	2.079937425397	210
0	600119	2.08152695769	211
0	602588	2.087886260884	212
0	610230	2.106076575051	213
0	611147	2.117678545978	214
0	611785	2.121045019853	215
0	615779	2.131207991972	216
0	618994	2.142657520845	217
0	625566	2.159822634647	218
0	626218	2.161491991822	219
0	627640	2.175656931391	220
0	629134	2.179314479704	221
0	637781	2.201104995517	222
0	638693	2.203284526098	223
0	641473	2.21439205742	224
0	642143	2.218903589646	225
0	646763	2.240798048095	226
0	648201	2.243809510389	227
0	653379	2.256189156196	228
0	654707	2.259640421482	229
0	657454	2.275523395707	230
0	658088	2.283572578134	231
0	659939	2.291816149198	232
0	663001	2.299056360013	233
0	669139	2.313719561189	234
0	672678	2.325069571796	235
0	673370	2.331687876778	236
0	674009	2.334875021042	237
0	675975	2.34763022237	238
0	681898	2.361777897256	239
0	686325	2.372323719244	240
0	687239	2.374347636691	241
0	689131	2.382379884723	242
0	690612	2.400678101181	243
0	695825	2.413780709631	244
0	696583	2.415567537083	245
0	698618	2.420818141011	246
0	704333	2.436050703903	247
0	705058	2.450331688221	248
0	706870	2.455055568758	249
0	708874	2.460154348427	250
0	714472	2.475988566621	251
0	719713	2.492546994897	252
0	720371	2.49515902105	253
0	721023	2.497132905671	254
0	724024	2.509828193311	255
0	731051	2.533549567998	256
0	732379	2.53666081214	257
0	734779	2.543111199117	258
0	736158	2.549720988496	259
0	742929	2.572656038709	260
0	745840	2.579891856124	261
0	746321	2.580967294118	262
0	750137	2.594979933398	263
0	754275	2.613586704436	264
0	755661	2.617353158093	265
0	757969	2.6233880856	266
0	761684	2.632652396291	267
0	765937	2.64962749216	268
0	767369	2.653165146924	269
0	770026	2.660300513764	270
0	774335	2.674445247826	271
0	777911	2.688029126164	272
0	778815	2.69010984839	273
0	781824	2.701537116956	274
0	785427	2.711886826244	275
0	791232	2.727525762594	276
0	792316	2.730148776647	277
0	794685	2.743495214114	278
0	796780	2.748540163508	279
0	800611	2.762574898625	280
0	802049	2.766330195156	281
0	807516	2.780202186651	282
0	809366	2.790960654963	283
0	814012	2.80533948079	284
0	815859	2.810054513944	285
0	817275	2.820478309891	286
0	822761	2.83488143667	287
0	826738	2.845427043159	288
0	829073	2.853796996304	289
0	831071	2.865118435218	290
0	834039	2.872725342525	291
0	836106	2.881712964601	292
0	840287	2.891524326965	293
0	845513	2.908988562943	294
0	846229	2.910775978202	295
0	849529	2.926080833955	296
0	850565	2.935102784482	297
0	857020	2.950999989619	298
0	858083	2.953541910129	299
0	862300	2.971035032763	300
0	863705	2.97489015813	301
0	865806	2.9903550197	302
0	867382	2.995680270494	303
0	875070	3.013873256128	304
0	876592	3.017647580233	305
0	880242	3.031316866622	306
0	880924	3.036912861577	307
0	884563	3.05376349381	308
0	885218	3.056356859553	309
0	891202	3.072812740814	310
0	892637	3.076217015486	311
0	897185	3.091525610775	312
0	899735	3.099558734792	313
0	900438	3.107286795283	314
0	902371	3.114976550981	315
0	908548	3.129851736233	316
0	911703	3.137147819795	317
0	915112	3.150102506305	318
0	915791	3.155410238066	319
0	919915	3.173055748803	320
0	921872	3.178273566342	321
0	925547	3.18705566067	322
0	930240	3.200193389925	323
0	930948	3.209956786018	324
0	934770	3.220350346891	325
0	935767	3.222738085886	326
0	941765	3.239732006342	327
0	945410	3.252280579489	328
0	946097	3.258767946737	329
0	946730	3.26036526966	330
0	951485	3.278592319611	331
0	955423	3.288753886798	332
0	958678	3.296591308815	333
0	959091	3.297641575221	334
0	964824	3.319964120302	335
0	965493	3.325209211983	336
0	969082	3.3344876097	337
0	970437	3.337808993681	338
0	976493	3.361294412554	339
0	977654	3.364170111366	340
0	980609	3.371942721062	341
0	982874	3.38160732756	342
0	991065	3.401620021126	343
0	991389	3.402468140464	344
0	993377	3.41128221736	345
0	995834	3.417671605758	346
0	1000779	3.438288146033	347
0	1003515	3.444321154105	348
0	1005299	3.448682714249	349
0	1008354	3.459806562073	350
0	1012249	3.473911727566	351
0	1014609	3.479634219973	352
0	1015385	3.486085924712	353
0	1021772	3.502484309291	354
0	1023796	3.514065641875	355
0	1027345	3.523166403077	356
0	1027759	3.524096673453	357
0	1033558	3.544510886263	358
0	1035336	3.54911200039	359
0	1039244	3.562718182619	360
0	1039409	3.563070182619	361
0	1045012	3.580402155047	362
0	1048456	3.592142156068	363
0	1049739	3.599870089328	364
0	1052288	3.606472613411	365
0	1056602	3.616962760516	366
0	1060207	3.633345534092	367
0	1063593	3.642539652035	368
0	1064426	3.646586717123	369
0	1067523	3.654420107785	370
0	1074649	3.674797608567	371
0	1075322	3.680120360648	372
0	1076437	3.687363361717	373
0	1077938	3.691277878614	374
0	1086182	3.714098025826	375
0	1088165	3.721996425952	376
0	1090355	3.727618494934	377
0	1091225	3.735045525512	378
0	1097719	3.754798127038	379
0	1101331	3.765337593307	380
0	1101979	3.767977627317	381
0	1104798	3.775144265782	382
0	1109302	3.795090342754	383
0	1113435	3.805060758423	384
0	1114875	3.808538885893	385
0	1115534	3.81011845959	386
0	1120898	3.833618625897	387
0	1122645	3.84029736033	388
0	1124746	3.845738230354	389
0	1126063	3.849021333763	390
0	1135590	3.877878634511	391
0	1135757	3.878347634511	392
0	1136722	3.880802144088	393
0	1137881	3.886256675974	394
0	1147175	3.916103909353	395
0	1147834	3.917696382375	396
0	1149165	3.920764412114	397
0	1150339	3.92351854624	398
0	1158493	3.956074827807	399
0	1159755	3.959419811712	400
0	1160403	3.960922374039	401
0	1161364	3.963263988613	402
0	1172958	3.997913849456	403
0	1173766	3.999935319441	404
0	1173931	4.000314319441	405
0	1174909	4.003899659829	406
0	1184532	4.039692039197	407
0	1184694	4.040026039197	408
0	1185196	4.04109663891	409
0	1187699	4.047066764546	410
0	1194029	4.076284796496	411
0	1195309	4.079409898628	412
0	1195471	4.079752898628	413
0	1196676	4.082524699992	414
0	1207552	4.111994988807	415
0	1208377	4.114895343226	416
0	1209023	4.116366556388	417
0	1209697	4.121207095565	418
0	1217851	4.151492770671	419
0	1219179	4.154578855879	420
0	1219440	4.155183002947	421
0	1222390	4.162208941601	422
0	1227883	4.188591832058	423
0	1229592	4.193607371479	424
0	1231706	4.199094885178	425
0	1234368	4.205756502378	426
0	1239449	4.225075759742	427
0	1241051	4.23214024037	428
0	1244632	4.241561958445	429
0	1247296	4.249043339415	430
0	1253899	4.266820009736	431
0	1254603	4.27481458271	432
0	1257067	4.284694767543	433
0	1260658	4.293495627098	434
0	1265193	4.311128893571	435
0	1267032	4.315531760386	436
0	1269828	4.327281133369	437
0	1271171	4.330468368473	438
0	1276997	4.350078860481	439
0	1277656	4.352959955302	440
0	1282709	4.369620384353	441
0	1283211	4.370856710307	442
0	1291532	4.39291489011	443
0	1291698	4.39332089011	444
0	1293613	4.408455442888	445
0	1294424	4.41038599349	446
0	1300041	4.427411393157	447
0	1301295	4.430276632484	448
0	1307322	4.451584980753	449
0	1307804	4.452749233507	450
0	1312754	4.468600403713	451
0	1313679	4.470763396247	452
0	1320099	4.489108717272	453
0	1322052	4.493551904673	454
0	1323127	4.503898421136	455
0	1323774	4.507718246028	456
0	1327699	4.526612677524	457
0	1330597	4.533184805341	458
0	1334908	4.543490477198	459
0	1337661	4.550318220851	460
0	1339014	4.568840460765	461
0	1339489	4.569968827846	462
0	1345646	4.584677058772	463
0	1346308	4.586203558828	464
0	1353429	4.604605754239	465
0	1354102	4.608691694359	466
0	1356530	4.624940469716	467
0	1358080	4.628845028898	468
0	1362749	4.64012891927	469
0	1364408	4.644471247678	470
0	1369549	4.662966835884	471
0	1370214	4.670992524059	472
0	1375070	4.685765739221	473
0	1375236	4.686144739221	474
0	1381729	4.703172557766	475
0	1384651	4.711117283719	476
0	1385377	4.721393740006	477
0	1386016	4.723000074179	478
0	1393262	4.745532860648	479
0	1395050	4.749940394088	480
0	1398751	4.758888316199	481
0	1400456	4.764299860585	482
0	1403569	4.783127337409	483
0	1404710	4.785783356421	484
0	1409722	4.799178549467	485
0	1413951	4.809629401755	486
0	1415796	4.820516257375	487
0	1416443	4.822194633536	488
0	1419776	4.836830845662	489
0	1424950	4.849611606474	490
0	1429830	4.864464430735	491
0	1430805	4.866964125552	492
0	1433250	4.878481795052	493
0	1436450	4.893770058636	494
0	1439664	4.901751683034	495
0	1443290	4.910656793401	496
0	1445957	4.91760912828	497
0	1449715	4.936927917849	498
0	1450036	4.937686165592	499
0	1451025	4.945651466912	500
0	1458174	4.962843637951	501
0	1462343	4.973930064952	502
0	1464827	4.980526316695	503
0	1465474	4.982321692856	504
0	1466210	4.998208425591	505
0	1471425	5.012329102342	506
0	1475366	5.021826070203	507
0	1476451	5.024203037801	508
0	1480711	5.036955328903	509
0	1483820	5.054648936069	510
0	1484978	5.058917021822	511
0	1485631	5.061383184638	512
0	1492664	5.079874586688	513
0	1495903	5.094222901987	514
0	1496555	5.096156732721	515
0	1498740	5.104117091932	516
0	1503781	5.124270663576	517
0	1508315	5.135648896042	518
0	1509310	5.137869631307	519
0	1510303	5.140382333385	520
0	1516147	5.161644880357	521
0	1519009	5.173331850261	522
0	1519651	5.174848226422	523
0	1520824	5.177679863576	524
0	1526891	5.196260654756	525
0	1531143	5.211629049143	526
0	1531963	5.213582576907	527
0	1533467	5.217699874716	528
0	1538333	5.235152380518	529
0	1543406	5.248893000135	530
0	1545713	5.254938833255	531
0	1546370	5.257813203096	532
0	1550750	5.275927029795	533
0	1554837	5.286045764155	534
0	1556794	5.290918946833	535
0	1558275	5.298185615355	536
0	1564515	5.319554015074	537
0	1565184	5.323971522903	538
0	1567050	5.328560426329	539
0	1572651	5.342651750995	540
0	1577200	5.359192460458	541
0	1579307	5.364643462387	542
0	1580356	5.367561436029	543
0	1583489	5.382726070084	544
0	1588487	5.394697823314	545
0	1591239	5.401690697003	546
0	1592590	5.404995104108	547
0	1595595	5.423226703048	548
0	1596408	5.431180338481	549
0	1603177	5.446939933449	550
0	1604437	5.449780121437	551
0	1610169	5.466586047453	552
0	1610856	5.472980392362	553
0	1611689	5.481527784618	554
0	1615073	5.490515144731	555
0	1622256	5.510320795915	556
0	1622747	5.511489184257	557
0	1625579	5.519014619036	558
0	1629658	5.533365263922	559
0	1631236	5.548729757009	560
0	1632274	5.551403678285	561
0	1635068	5.558058328016	562
0	1641236	5.573621279583	563
0	1644938	5.592360960172	564
0	1645577	5.595015245072	565
0	1646210	5.596576579245	566
0	1652560	5.6189914792	567
0	1659156	5.635831264803	568
0	1659322	5.636264264803	569
0	1660733	5.640455584124	570
0	1662494	5.659938210499	571
0	1667376	5.672188007753	572
0	1668368	5.674425591806	573
0	1672747	5.685095516146	574
0	1676071	5.699500757197	575
0	1678796	5.71345190058	576
0	1678958	5.71379490058	577
0	1680970	5.722818907014	578
0	1687715	5.740150291059	579
0	1691334	5.749882054184	580
0	1691501	5.750216054184	581
0	1694269	5.763219060047	582
0	1696164	5.775871726451	583
0	1701124	5.789300541587	584
0	1702382	5.792381522984	585
0	1707348	5.806723540471	586
0	1710634	5.819347288326	587
0	1711308	5.823696968674	588
0	1714877	5.833640545325	589
0	1719733	5.849257009378	590
0	1725013	5.864081382333	591
0	1725505	5.865245673259	592
0	1726418	5.870091677898	593
0	1733008	5.892066221067	594
0	1736823	5.903482018487	595
0	1737906	5.906015045317	596
0	1739165	5.909204005055	597
0	1748127	5.93789148023	598
0	1749459	5.941125527712	599
0	1749781	5.94194664705	600
0	1751441	5.946298983866	601
0	1759637	5.978813758975	602
0	1760630	5.981042742114	603
0	1760796	5.981385742114	604
0	1762180	5.984777477158	605
0	1772570	6.015989564174	606
0	1774237	6.020249789548	607
0	1774967	6.022064225257	608
0	1775732	6.027397345236	609
0	1782411	6.058281508113	610
0	1784337	6.062633723859	611
0	1785184	6.064619368469	612
0	1787045	6.068994741323	613
0	1793830	6.098183982686	614
0	1794463	6.103052127229	615
0	1795096	6.10473050339	616
0	1795729	6.106282787011	617
0	1808448	6.139481060661	618
0	1808860	6.140510327067	619
0	1809679	6.142639610688	620
0	1810002	6.143361880368	621
0	1815718	6.17704737993	622
0	1816970	6.179918669637	623
0	1818542	6.183567297621	624
0	1819568	6.18609527469	625
0	1828554	6.216929081157	626
0	1829223	6.221016729245	627
0	1829876	6.223539999674	628
0	1830509	6.225281212836	629
0	1839089	6.254307154366	630
0	1841399	6.259636062259	631
0	1843448	6.264999149284	632
0	1844448	6.267530789088	633
0	1848641	6.291888873465	634
0	1849325	6.299305865364	635
0	1849958	6.300858222539	636
0	1851209	6.303732300776	637
0	1863178	6.333804686614	638
0	1863852	6.338826854452	639
0	1864501	6.340696734834	640
0	1864986	6.341788987588	641
0	1875123	6.376034008947	642
0	1876027	6.37809275683	643
0	1877195	6.380998157858	644
0	1878466	6.384074057628	645
0	1883349	6.414450287896	646
0	1885137	6.419195231394	647
0	1886198	6.421687000761	648
0	1886777	6.423014326715	649
0	1895702	6.452876459751	650
0	1898043	6.459137449342	651
0	1899122	6.462181014548	652
0	1899778	6.464739959395	653
0	1909372	6.495625574679	654
0	1910019	6.497150845677	655
0	1910341	6.49784609342	656
0	1912709	6.504938252867	657
0	1922169	6.53400013054	658
0	1922999	6.535921753626	659
0	1923735	6.537686522166	660
0	1926428	6.548283482956	661
0	1933217	6.570488125731	662
0	1934646	6.574358243842	663
0	1936306	6.578502189226	664
0	1940105	6.588033402854	665
0	1946712	6.610916555206	666
0	1947683	6.618928486528	667
0	1948005	6.619668689029	668
0	1953213	6.632242294164	669
0	1958092	6.65062254752	670
0	1961863	6.660284115684	671
0	1962786	6.663872971917	672
0	1963447	6.667016175326	673
0	1969083	6.687643581466	674
0	1973552	6.699800192912	675
0	1976540	6.707212783416	676
0	1978062	6.711416159933	677
0	1981356	6.721551633147	678
0	1985360	6.741045308521	679
0	1988084	6.748312667135	680
0	1989422	6.751746619989	681
0	1991646	6.757495848821	682
0	1999884	6.785959463654	683
0	2000534	6.787493724528	684
0	2001168	6.789010008149	685
0	2004481	6.798105142645	686
0	2012396	6.82366437874	687
0	2014969	6.830055164692	688
0	2015614	6.831544521867	689
0	2016315	6.838719050382	690
0	2022040	6.861768347004	691
0	2023788	6.866704720621	692
0	2025558	6.871426097468	693
0	2029147	6.87974369524	694
0	2033440	6.897761334415	695
0	2035215	6.906152867314	696
0	2035869	6.907846326763	697
0	2040286	6.923851934809	698
0	2046094	6.942463812588	699
0	2047543	6.947650127955	700
0	2048611	6.950302847072	701
0	2051820	6.963477288384	702
0	2057612	6.9807799362	703
0	2060699	6.989256659798	704
0	2061692	6.991567366206	705
0	2063682	7.000428236575	706
0	2068958	7.021614611185	707
0	2072032	7.029086369951	708
0	2073379	7.032140790372	709
0	2077038	7.043875843629	710
0	2081905	7.064123951221	711
0	2083076	7.06694707373	712
0	2084051	7.069304969181	713
0	2089317	7.085002259045	714
0	2095231	7.102929665154	715
0	2095895	7.106113205568	716
0	2096537	7.107791562743	717
0	2101138	7.127804381514	718
0	2107357	7.143626292473	719
0	2109562	7.149198491493	720
0	2109728	7.149640491493	721
0	2114655	7.170314119707	722
0	2118302	7.185426699915	723
0	2119109	7.187493135196	724
0	2119431	7.188287254534	725
0	2126939	7.214386103774	726
0	2130584	7.223753797089	727
0	2133305	7.229994530722	728
0	2134124	7.232062269214	729
0	2140214	7.250207336678	730
0	2142148	7.267664890713	731
0	2142310	7.268025890713	732
0	2143437	7.270786914596	733
0	2151221	7.292033128466	734
0	2155517	7.302999697186	735
0	2156605	7.305689582281	736
0	2157259	7.308075284422	737
0	2163867	7.335194927708	738
0	2164877	7.338231392731	739
0	2166396	7.342380862087	740
0	2168430	7.347444399209	741
0	2178082	7.380913875243	742
0	2178578	7.382087201197	743
0	2179830	7.386847478378	744
0	2179996	7.387280478378	745
0	2186994	7.41528601287	746
0	2190018	7.42362116332	747
0	2190180	7.42395516332	748
0	2193650	7.432490377533	749
0	2200792	7.453015060714	750
0	2202144	7.458271873089	751
0	2202830	7.463890387518	752
0	2203494	7.469047697382	753
0	2213786	7.495903593947	754
0	2213951	7.496246593947	755
0	2217303	7.506584112171	756
0	2217627	7.507324359914	757
0	2223688	7.533617310215	758
0	2226148	7.539890672568	759
0	2229600	7.548713312433	760
0	2230423	7.550865028704	761
0	2236077	7.574644181808	762
0	2236722	7.576295452806	763
0	2239657	7.587082282404	764
0	2240236	7.588428695878	765
0	2248187	7.611767408414	766
0	2249187	7.614146179735	767
0	2251931	7.621707308247	768
0	2252593	7.624679280756	769
0	2258482	7.650934439072	770
0	2260180	7.654931402412	771
0	2263105	7.662383966364	772
0	2264527	7.665816101674	773
0	2268742	7.688896278709	774
0	2272654	7.699146949243	775
0	2273724	7.701665009786	776
0	2274217	7.70288744778	777
0	2282369	7.731696422666	778
0	2283879	7.735632658164	779
0	2284853	7.73787969985	780
0	2287219	7.74391971425	781
0	2296651	7.770651052483	782
0	2297458	7.772715831205	783
0	2298127	7.777457530414	784
0	2298791	7.780672638614	785
0	2307324	7.809304605189	786
0	2308898	7.813009221484	787
0	2312602	7.822094055849	788
0	2313265	7.824990449748	789
0	2319506	7.847545772348	790
0	2320532	7.852586918661	791
0	2322944	7.861842247218	792
0	2324443	7.865337863366	793
0	2329834	7.883832636066	794
0	2331589	7.887984383119	795
0	2335800	7.899262114325	796
0	2337122	7.90950559965	797
0	2342352	7.922764974604	798
0	2343604	7.925681846929	799
0	2347527	7.940935363925	800
0	2350950	7.94997696889	801
0	2351657	7.958500787564	802
0	2353428	7.965957321241	803
0	2358939	7.97971463693	804
0	2364051	7.992493822697	805
0	2366101	7.997866935657	806
0	2366775	8.00239299043	807
0	2371347	8.020154013141	808
0	2376884	8.035091397552	809
0	2377050	8.035425397552	810
0	2380140	8.045498090555	811
0	2382678	8.061082422766	812
0	2387976	8.074041413125	813
0	2389149	8.076957341393	814
0	2390441	8.082932889639	815
0	2396144	8.097876261186	816
0	2399709	8.112392594933	817
0	2400514	8.114377131715	818
0	2404336	8.126894960477	819
0	2406826	8.134367056297	820
0	2411703	8.152600983016	821
0	2413903	8.158523703433	822
0	2417942	8.168645221647	823
0	2419469	8.173558197898	824
0	2425567	8.195869487313	825
0	2426798	8.200677909866	826
0	2427457	8.204196327287	827
0	2430466	8.212882088387	828
0	2436049	8.232621310445	829
0	2440074	8.24332244063	830
0	2440813	8.245039241195	831
0	2442232	8.248492378888	832
0	2446739	8.271515989042	833
0	2449846	8.2808763785	834
0	2453106	8.28928029366	835
0	2454194	8.291826510036	836
0	2457886	8.31040377841	837
0	2461344	8.323886216095	838
0	2462999	8.327896944845	839
0	2464779	8.332156632013	840
0	2472435	8.350804461327	841
0	2473177	8.364324988418	842
0	2473647	8.365507241172	843
0	2475319	8.375638631469	844
0	2482458	8.393307342676	845
0	2487301	8.404719188819	846
0	2488308	8.407716297884	847
0	2488983	8.412365971013	848
0	2492341	8.428807049423	849
0	2497532	8.447226374503	850
0	2499043	8.450711826624	851
0	2500390	8.453719198644	852
0	2504950	8.470092560383	853
0	2508257	8.487190222195	854
0	2509125	8.489435939436	855
0	2510012	8.491417679201	856
0	2518326	8.51226459004	857
0	2522368	8.529264940789	858
0	2522848	8.530357282356	859
0	2523171	8.531142401694	860
0	2527398	8.550078579514	861
0	2536346	8.571894941432	862
0	2537421	8.574647680024	863
0	2537744	8.575378799362	864
0	2538870	8.583355779815	865
0	2544681	8.610878243329	866
0	2545415	8.612541014648	867
0	2546696	8.615516241637	868
0	2552425	8.629331322328	869
0	2557059	8.649254760446	870
0	2557701	8.650771044067	871
0	2558356	8.653553335164	872
0	2561980	8.66832428926	873
0	2568543	8.688073441131	874
0	2571554	8.695820217806	875
0	2572203	8.697665717282	876
0	2575162	8.712334284272	877
0	2577938	8.726991889598	878
0	2579257	8.730321062536	879
0	2580396	8.733071236173	880
0	2587779	8.751730218963	881
0	2591705	8.766817031186	882
0	2592365	8.769586223013	883
0	2592846	8.770714544852	884
0	2599980	8.796744052158	885
0	2603734	8.805552939512	886
0	2603983	8.806068118398	887
0	2605470	8.809470091771	888
0	2611308	8.839038995364	889
0	2614583	8.84772981629	890
0	2615640	8.850247815026	891
0	2615804	8.850608815026	892
0	2622922	8.874328340602	893
0	2625342	8.885620056264	894
0	2626391	8.888161964974	895
0	2628943	8.894567127669	896
0	2634861	8.913647318662	897
0	2638040	8.922309118487	898
0	2638713	8.926417001348	899
0	2641123	8.933316699741	900
0	2645999	8.952795152249	901
0	2648216	8.963820400016	902
0	2649796	8.967698695854	903
0	2652349	8.973470485694	904
0	2660424	8.994508126424	905
0	2661243	9.0060816639	906
0	2661876	9.007552985048	907
0	2662509	9.009186310295	908
0	2669056	9.033620090957	909
0	2673280	9.044224628016	910
0	2675487	9.050080609781	911
0	2676829	9.053369142997	912
0	2678085	9.0691375407	913
0	2683473	9.083164829379	914
0	2684824	9.086419168981	915
0	2685643	9.088612796951	916
0	2692300	9.111045512734	917
0	2695878	9.124922007421	918
0	2696040	9.125283007421	919
0	2699269	9.133570699452	920
0	2702428	9.148204690265	921
0	2707428	9.163757940258	922
0	2708077	9.165409261406	923
0	2709612	9.170049284123	924
0	2715312	9.185513043662	925
0	2718775	9.201724918669	926
0	2720621	9.206047922148	927
0	2722212	9.209904719113	928
0	2726901	9.222374270818	929
0	2730584	9.240022752682	930
0	2731239	9.248083478792	931
0	2732831	9.252068581453	932
0	2736848	9.261832259689	933
0	2745029	9.282706362197	934
0	2745691	9.285873756657	935
0	2746347	9.288627663654	936
0	2747040	9.296790134033	937
0	2757058	9.325783540803	938
0	2757224	9.326216540803	939
0	2758380	9.328901438693	940
0	2760863	9.335306477556	941
0	2765157	9.359737307954	942
0	2765644	9.360901629793	943
0	2767396	9.366429363119	944
0	2771163	9.375594875631	945
0	2779365	9.403059053855	946
0	2780259	9.405396818963	947
0	2780924	9.409221255539	948
0	2781600	9.414089499767	949
0	2791026	9.439962023929	950
0	2791861	9.443582604952	951
0	2792906	9.450195631424	952
0	2794323	9.453893966112	953
0	2801606	9.480714394863	954
0	2802016	9.481795757653	955
0	2805140	9.489217001562	956
0	2806048	9.49159058227	957
0	2812698	9.517001988807	958
0	2814976	9.523372909637	959
0	2815622	9.52506923256	960
0	2818317	9.534820495524	961
0	2825873	9.556243842579	962
0	2826566	9.564100388563	963
0	2827290	9.565963596091	964
0	2830779	9.575739475147	965
0	2840166	9.60059798647	966
0	2840574	9.601608252876	967
0	2841676	9.607401090616	968
0	2845293	9.61869864092	969
0	2850164	9.63947972538	970
0	2850750	9.640928138854	971
0	2852656	9.64540108763	972
0	2857165	9.662324520003	973
0	2863545	9.679487041267	974
0	2864193	9.681174362415	975
0	2864840	9.682861696588	976
0	2870224	9.705552615301	977
0	2872136	9.715102865404	978
0	2873396	9.718133324902	979
0	2876695	9.726641754204	980
0	2882454	9.748045022409	981
0	2885355	9.756593971605	982
0	2887314	9.762318115552	983
0	2887964	9.764359680764	984
0	2894584	9.7854556501	985
0	2896675	9.799170289866	986
0	2897464	9.801200239666	987
0	2897626	9.801687239666	988
0	2907991	9.827294325915	989
0	2909907	9.838591468817	990
0	2910554	9.840287789965	991
0	2911197	9.842253366065	992
0	2917770	9.863247625357	993
0	2921312	9.876213435431	994
0	2923249	9.881131341146	995
0	2924075	9.883115931432	996
0	2931713	9.905002023219	997
0	2933056	9.917525172265	998
0	2936253	9.925738429921	999
0	2937152	9.927949101543	1000
0	2942736	9.946420563379	1001
0	2946069	9.954832490863	1002
0	2948145	9.962555156713	1003
0	2948625	9.963674523794	1004
0	2955394	9.989316375576	1005
0	2956051	9.992258615469	1006
1	0	0	0
2	0	0	0
3	0	0	0
3	5401	0.012523426003	1
3	19270	0.04467918148	2
3	24992	0.087183478901	3
3	36711	0.122235722957	4
3	47841	0.166635824999	5
3	55700	0.196123029368	6
3	70255	0.23836997155	7
3	78375	0.27679431036	8
3	90407	0.319682977981	9
3	104899	0.362337944391	10
3	114625	0.407655224789	11
3	125896	0.447710541336	12
3	137634	0.48688677556	13
3	149957	0.532774465015	14
3	160964	0.575592926854	15
3	172615	0.611931014383	16
3	186974	0.652381911147	17
3	198332	0.692468617907	18
3	209866	0.734039423088	19
3	221563	0.771718393411	20
3	235926	0.814099099004	21
3	247715	0.859203536068	22
3	259898	0.899006210969	23
3	274141	0.941974061371	24
3	287405	0.986287635535	25
3	298223	1.024081118684	26
3	308000	1.065962674263	27
3	321450	1.10719242853	28
3	333645	1.146908801879	29
3	342137	1.182359003644	30
3	352028	1.218453275921	31
3	365570	1.255501262721	32
3	374987	1.292779517972	33
3	386534	1.331928204025	34
3	399529	1.37108374876	35
3	410715	1.41691714993	36
3	418387	1.448806283535	37
3	432827	1.49106375017	38
3	441255	1.527523394183	39
3	453251	1.570883142745	40
3	464586	1.60794428088	41
3	477221	1.65002358512	42
3	487639	1.68439740437	43
3	499870	1.722308519796	44
3	511268	1.763005411813	45
3	518792	1.799360182596	46
3	533749	1.837182294479	47
3	548338	1.888697815245	48
3	557021	1.927138500059	49
3	566588	1.967609403877	50
3	580738	2.005008380306	51
3	591828	2.044531432936	52
3	600376	2.082042240422	53
3	612113	2.121812187674	54
3	625908	2.160634802468	55
3	639109	2.204370828421	56
3	648875	2.245366230414	57
3	658416	2.284501745955	58
3	673014	2.325872739617	59
3	682506	2.363225342969	60
3	691110	2.401927512798	61
3	704668	2.436925871724	62
3	715253	2.477888371333	63
3	724607	2.511336871334	64
3	736495	2.550686156317	65
3	750638	2.596208382789	66
3	762364	2.634314061654	67
3	774932	2.675896952173	68
3	785762	2.712815994065	69
3	797366	2.749958853963	70
3	809783	2.791836969852	71
3	824228	2.837872392428	72
3	834537	2.873854804482	73
3	846563	2.911534146023	74
3	858849	2.955262672908	75
3	867799	2.996676585383	76
3	881258	3.037698029398	77
3	893154	3.077358477443	78
3	903043	3.11651514744	79
3	916119	3.156276405887	80
3	930575	3.201059557746	81
3	942448	3.241375476575	82
3	951910	3.279612577315	83
3	965152	3.320740288123	84
3	977001	3.362504727443	85
3	991567	3.402937188947	86
3	1004025	3.445602640582	87
3	1014941	3.480482387794	88
3	1028273	3.525269197563	89
3	1040401	3.565385133562	90
3	1050247	3.601011488285	91
3	1064100	3.643741113653	92
3	1075658	3.681103528469	93
3	1088588	3.722979653321	94
3	1101663	3.766194761128	95
3	1115796	3.810798686959	96
3	1125743	3.848289235178	97
3	1137058	3.881668311909	98
3	1149847	3.922282130274	99
3	1161136	3.962619867515	100
3	1173300	3.998753017277	101
3	1186193	4.043352399091	102
3	1196046	4.081070125997	103
3	1208873	4.116005604871	104
3	1219029	4.154217904362	105
3	1230100	4.194736889774	106
3	1241550	4.233479614807	107
3	1254938	4.275779750531	108
3	1267539	4.316781075275	109
3	1277992	4.353844123123	110
3	1292437	4.395171117479	111
3	1302506	4.433163913237	112
3	1313857	4.47111544473	113
3	1323464	4.504800588957	114
3	1335769	4.545535098177	115
3	1346733	4.587204905535	116
3	1357097	4.626290031967	117
3	1369885	4.663923003705	118
3	1382321	4.704450167295	119
3	1393948	4.747225382153	120
3	1404563	4.785368404904	121
3	1416135	4.821292425196	122
3	1430328	4.865628745624	123
3	1440267	4.903114057471	124
3	1450370	4.938444333413	125
3	1465166	4.981446484516	126
3	1475968	5.023100682393	127
3	1485316	5.059927189643	128
3	1496889	5.097085900542	129
3	1510153	5.139922381868	130
3	1519345	5.174108018082	131
3	1531815	5.21320362539	132
3	1546048	5.255877001076	133
3	1557479	5.292453505518	134
3	1567906	5.330723570076	135
3	1580692	5.36830160385	136
3	1593010	5.406060418997	137
3	1605204	5.451562964964	138
3	1615408	5.491390312552	139
3	1629986	5.534276431743	140
3	1641661	5.574668569474	141
3	1653420	5.620991369861	142
3	1662992	5.661148680258	143
3	1676406	5.700312925018	144
3	1688752	5.742513360679	145
3	1696496	5.776602894272	146
3	1710968	5.820222456147	147
3	1725922	5.866292900628	148
3	1737582	5.905126678318	149
3	1750704	5.944395261043	150
3	1761705	5.983543115168	151
3	1775301	6.022921393078	152
3	1786542	6.06775738109	153
3	1794796	6.10389129505	154
3	1810658	6.144941048189	155
3	1820764	6.188860451138	156
3	1830363	6.224803261319	157
3	1841993	6.261012703606	158
3	1849653	6.300046033185	159
3	1864187	6.339774022273	160
3	1877706	6.382207456503	161
3	1883857	6.415615843849	162
3	1896200	6.454098851957	163
3	1910678	6.498685261241	164
3	1924328	6.539034861575	165
3	1935141	6.575517643	166
3	1948936	6.621747368991	167
3	1962462	6.661746552643	168
3	1974306	6.701613664421	169
3	1985700	6.741893476342	170
3	2000386	6.787150773011	171
3	2015950	6.832383689688	172
3	2024717	6.868991517009	173
3	2036289	6.908848616654	174
3	2048047	6.948782520161	175
3	2062107	6.992542705615	176
3	2073903	7.033278260605	177
3	2084619	7.070641584682	178
3	2096229	7.106835373389	179
3	2110482	7.151423072788	180
3	2119934	7.189406422355	181
3	2134460	7.233000437035	182
3	2144181	7.272566351555	183
3	2156940	7.306420750102	184
3	2166993	7.343761419366	185
3	2180578	7.388562937125	186
3	2191190	7.426358884991	187
3	2202477	7.45901204091	188
3	2214949	7.498517379053	189
3	2226657	7.541203047005	190
3	2237057	7.577179620627	191
3	2249779	7.615624735688	192
3	2260777	7.656424909158	193
3	2273330	7.700734560538	194
3	2284378	7.736768119782	195
3	2297792	7.773482999026	196
3	2309581	7.814584830509	197
3	2320017	7.848637290643	198
3	2330347	7.885023950955	199
3	2342771	7.923659264495	200
3	2351991	7.959276955385	201
3	2366437	7.998841103478	202
3	2377716	8.037058930446	203
3	2389486	8.077814509214	204
3	2400124	8.113294909822	205
3	2412213	8.153910297905	206
3	2426215	8.197747033338	207
3	2436637	8.234002756158	208
3	2447417	8.273153535161	209
3	2458214	8.311161946231	210
3	2472771	8.351625629148	211
3	2483056	8.394506952205	212
3	2492759	8.429772351746	213
3	2505551	8.471571009774	214
3	2519008	8.513871255403	215
3	2527897	8.551234894403	216
3	2539206	8.584302947636	217
3	2553200	8.631203930741	218
3	2562314	8.669235457081	219
3	2575668	8.713475713741	220
3	2588290	8.752885508854	221
3	2601431	8.800116608681	222
3	2611641	8.840004163185	223
3	2623259	8.875221508423	224
3	2635618	8.915438886445	225
3	2646337	8.95377832007	226
3	2660848	8.995528353793	227
3	2670087	9.036037999143	228
3	2678506	9.070085830591	229
3	2692634	9.111902680555	230
3	2703267	9.150292482832	231
3	2715648	9.186505211483	232
3	2727238	9.223276438639	233
3	2738056	9.264768513418	234
3	2747369	9.297737301854	235
3	2761543	9.336788157518	236
3	2772021	9.377504838046	237
3	2781937	9.414928667588	238
3	2795170	9.455748652454	239
3	2806479	9.492474809639	240
3	2819597	9.537966757405	241
3	2831115	9.576470642968	242
3	2845621	9.619528808741	243
3	2857679	9.663616038298	244
3	2870816	9.7069081842	245
3	2883119	9.749661702371	246
3	2894919	9.786186817921	247
3	2908832	9.829286260416	248
3	2918104	9.864005793178	249
3	2932220	9.906122325542	250
3	2943512	9.948347172404	251
3	2955728	9.990101543397	252
4	0	0	0
5	0	0	0
6	0	0	0
6	5567	0.012920501228	1
6	19436	0.045058256705	2
6	23332	0.083373273195	3
6	35612	0.119438039624	4
6	45848	0.161854161106	5
6	56379	0.20136891874	6
6	71600	0.246568658749	7
6	83708	0.289781704264	8
6	91701	0.330676406665	9
6	105581	0.366837689922	10
6	115049	0.408657730437	11
6	124920	0.445228763473	12
6	136971	0.483307391668	13
6	147154	0.526028561478	14
6	157362	0.55633183215	15
6	170604	0.600682306372	16
6	184153	0.644821550729	17
6	193836	0.680710485093	18
6	205115	0.720598807341	19
6	217957	0.758575227925	20
6	229263	0.797051212215	21
6	240086	0.836296811222	22
6	252772	0.87589427629	23
6	265927	0.914203547801	24
6	279337	0.960431593916	25
6	290344	0.994430994152	26
6	303941	1.042042450295	27
6	313167	1.078099135435	28
6	323524	1.121895648073	29
6	336613	1.158648301114	30
6	347735	1.195457002261	31
6	355954	1.232828741156	32
6	367725	1.267618728474	33
6	382882	1.31216794777	34
6	394647	1.356362722767	35
6	403088	1.394750617423	36
6	417705	1.438647636696	37
6	428138	1.477859736704	38
6	436495	1.515351487931	39
6	449396	1.554993781497	40
6	461803	1.596980609685	41
6	472457	1.631115433494	42
6	485139	1.674344545733	43
6	497051	1.711723405659	44
6	506068	1.751016912978	45
6	517992	1.789617085341	46
6	529756	1.826940556022	47
6	538628	1.86379116	48
6	549993	1.903682237613	49
6	564542	1.948159736282	50
6	575668	1.988531890147	51
6	585777	2.030121021803	52
6	596326	2.066173661613	53
6	610748	2.107422112233	54
6	619334	2.143586763891	55
6	629975	2.181322519598	56
6	641810	2.215195300466	57
6	654147	2.258326962147	58
6	660358	2.292745514314	59
6	673704	2.332509119824	60
6	688264	2.376901745909	61
6	697697	2.418338427279	62
6	705565	2.451650319399	63
6	720052	2.493350237943	64
6	732898	2.537919349322	65
6	747078	2.582818064696	66
6	756174	2.618521607755	67
6	767879	2.65446851204	68
6	779247	2.691142238504	69
6	791748	2.728766324296	70
6	800954	2.763387141671	71
6	814784	2.807060517104	72
6	827080	2.846266286205	73
6	836535	2.882634379235	74
6	850115	2.927353501622	75
6	862806	2.972365521544	76
6	875930	3.015896234105	77
6	885550	3.057214102599	78
6	900073	3.100487977838	79
6	912136	3.138123185893	80
6	922538	3.17990022546	81
6	935291	3.221515724439	82
6	947062	3.261195512706	83
6	959594	3.298769818267	84
6	970861	3.338811383795	85
6	983297	3.382468717674	86
6	996171	3.418438848804	87
6	1008867	3.461002011735	88
6	1022201	3.503477699405	89
6	1034060	3.545721276377	90
6	1045350	3.581214398093	91
6	1057719	3.61959899088	92
6	1068028	3.655684620951	93
6	1078445	3.692559268728	94
6	1091739	3.736255915626	95
6	1105396	3.776544912099	96
6	1116384	3.812121125318	97
6	1126498	3.850077699861	98
6	1138481	3.887750272704	99
6	1151113	3.92519734003	100
6	1161785	3.964260378727	101
6	1175250	4.004810902875	102
6	1188385	4.048659435717	103
6	1197189	4.083705256426	104
6	1210037	4.121974338611	105
6	1223170	4.164027706679	106
6	1234968	4.207226055134	107
6	1247641	4.249846582461	108
6	1261085	4.294389929692	109
6	1271601	4.331470746021	110
6	1283632	4.371763132239	111
6	1294756	4.411135236536	112
6	1308144	4.453588476553	113
6	1322566	4.494796498193	114
6	1332143	4.536736676224	115
6	1340318	4.571897229253	116
6	1354442	4.609674937405	117
6	1365095	4.6461399757	118
6	1376765	4.689697088321	119
6	1386348	4.724001317225	120
6	1400796	4.765247103631	121
6	1414725	4.811485328395	122
6	1425383	4.850486909068	123
6	1437046	4.895200583252	124
6	1450691	4.939229678318	125
6	1462854	4.975166551794	126
6	1472796	5.015579689087	127
6	1484407	5.056003588162	128
6	1496244	5.095044145033	129
6	1509077	5.137354529572	130
6	1521337	5.179010400758	131
6	1532393	5.214521909836	132
6	1543838	5.249858390249	133
6	1555356	5.287245395333	134
6	1565529	5.324819765949	135
6	1580122	5.366731412669	136
6	1591751	5.402784208818	137
6	1604208	5.44925593814	138
6	1612284	5.482910450346	139
6	1626092	5.520269053939	140
6	1635757	5.559623167271	141
6	1646542	5.597379822291	142
6	1661073	5.64124082717	143
6	1673688	5.687206578107	144
6	1681312	5.72370315006	145
6	1694935	5.764794864139	146
6	1707687	5.807481783517	147
6	1720250	5.850438521193	148
6	1733430	5.893041598615	149
6	1748820	5.939596004846	150
6	1761544	5.983173190393	151
6	1773161	6.017474085112	152
6	1783090	6.05976135455	153
6	1794162	6.099059225732	154
6	1809201	6.141304570113	155
6	1816741	6.179313460715	156
6	1829563	6.221882972291	157
6	1844967	6.268741302254	158
6	1852057	6.305952316317	159
6	1865169	6.342222111296	160
6	1876878	6.380157827493	161
6	1885898	6.420982909634	162
6	1899462	6.463056257594	163
6	1911002	6.499452606146	164
6	1924074	6.538399765212	165
6	1933640	6.571481515845	166
6	1947142	6.611800920322	167
6	1958681	6.652156238456	168
6	1969675	6.689092178196	169
6	1981868	6.722724185903	170
6	1992069	6.758426238935	171
6	2004912	6.798998475574	172
6	2016654	6.839594293428	173
6	2029752	6.881161144902	174
6	2040715	6.924836292766	175
6	2052250	6.9644796535	176
6	2064112	7.001349569504	177
6	2077379	7.044886086675	178
6	2089738	7.086004649159	179
6	2101569	7.128773771628	180
6	2114987	7.171108362753	181
6	2127443	7.215587647776	182
6	2140814	7.251588831129	183
6	2152082	7.294031226694	184
6	2164205	7.335926170754	185
6	2178759	7.382430324905	186
6	2191352	7.426710960216	187
6	2203170	7.464819630564	188
6	2218287	7.508930805461	189
6	2230936	7.552213418818	190
6	2240825	7.589742436466	191
6	2252934	7.625617523802	192
6	2263791	7.663955710162	193
6	2274814	7.704199862414	194
6	2285360	7.739097324213	195
6	2298467	7.77840477346	196
6	2312943	7.822942298895	197
6	2323716	7.863581128123	198
6	2336141	7.900101357371	199
6	2348300	7.942719276101	200
6	2359624	7.981334312747	201
6	2371860	8.021448462803	202
6	2383092	8.06207581288	203
6	2396658	8.099076798872	204
6	2407589	8.135991724303	205
6	2419809	8.174496440944	206
6	2431053	8.21417164536	207
6	2442746	8.249700972408	208
6	2454956	8.293525218806	209
6	2465469	8.333876169195	210
6	2475916	8.377207230804	211
6	2489323	8.413187214059	212
6	2499988	8.452793877983	213
6	2508896	8.488908753845	214
6	2523829	8.532676727903	215
6	2538175	8.576335132291	216
6	2545900	8.613736450658	217
6	2558696	8.65440157821	218
6	2572882	8.699390229466	219
6	2581685	8.735920532603	220
6	2593027	8.77107566856	221
6	2605986	8.810724603955	222
6	2616550	8.85240520514	223
6	2629457	8.8958125951	224
6	2641961	8.935326797969	225
6	2653453	8.976179021456	226
6	2662367	9.008753434003	227
6	2676002	9.051267059443	228
6	2685336	9.087665705824	229
6	2697299	9.128318060652	230
6	2708417	9.166185504452	231
6	2719375	9.203119557688	232
6	2730924	9.240834995728	233
6	2745368	9.283473605243	234
6	2759146	9.330917959631	235
6	2767986	9.367787934851	236
6	2781263	9.410159498585	237
6	2793501	9.451581365261	238
6	2805902	9.491094705978	239
6	2815962	9.525917475606	240
6	2827803	9.567156045753	241
6	2842016	9.608294333662	242
6	2853825	9.648588366499	243
6	2864537	9.682022605461	244
6	2873909	9.719409715016	245
6	2887654	9.763211358598	246
6	2899016	9.804981152477	247
6	2910894	9.841199033011	248
6	2924832	9.88507685284	249
6	2937579	9.928960404137	250
6	2949129	9.96491976684	251
7	0	0	0
8	0	0	0
9	0	0	0
9	5803	0.013489717822	1
9	17462	0.040443963082	2
9	22595	0.081644513481	3
9	36865	0.122569707771	4
9	47242	0.165179327411	5
9	55043	0.193519338683	6
9	68392	0.233702141642	7
9	75253	0.268470573961	8
9	89689	0.309766368792	9
9	101977	0.35514412583	10
9	110771	0.398972898185	11
9	121692	0.433025864794	12
9	132418	0.472645993169	13
9	143085	0.516199173593	14
9	156702	0.554146993223	15
9	168186	0.594449002501	16
9	180947	0.635455117801	17
9	191510	0.674432519233	18
9	204291	0.718464974337	19
9	217106	0.753685776697	20
9	228000	0.794164804777	21
9	238423	0.831994083919	22
9	251896	0.869275902128	23
9	262204	0.905254353446	24
9	275057	0.945855339303	25
9	286554	0.984077814429	26
9	297467	1.022041753024	27
9	305624	1.059891729512	28
9	321284	1.106840413344	29
9	333389	1.146282639625	30
9	341390	1.180588371578	31
9	352498	1.219662380073	32
9	367046	1.263738302022	33
9	379386	1.303220313489	34
9	387385	1.339567767971	35
9	401766	1.381639205717	36
9	413462	1.423454917602	37
9	419016	1.456179488056	38
9	433520	1.497414454588	39
9	445751	1.538332315054	40
9	456147	1.578263760501	41
9	466030	1.612872440089	42
9	478916	1.654548132115	43
9	489352	1.693204331344	44
9	502490	1.729346014167	45
9	513840	1.769585526682	46
9	521257	1.806717954267	47
9	534598	1.843731224809	48
9	548999	1.890251496888	49
9	555073	1.922704467608	50
9	565863	1.963310753063	51
9	581055	2.0058206348	52
9	593486	2.048223216324	53
9	603262	2.089380985208	54
9	616371	2.132661524745	55
9	628221	2.177033506708	56
9	642473	2.219733742281	57
9	655212	2.260826780733	58
9	663932	2.301205361616	59
9	674343	2.335831173677	60
9	687746	2.37559711528	61
9	697439	2.417616206044	62
9	707364	2.456273843463	63
9	721353	2.498008058306	64
9	735374	2.544595620756	65
9	746491	2.581319327415	66
9	758486	2.624628499883	67
9	770529	2.661502054531	68
9	782154	2.702223269591	69
9	795444	2.745190795557	70
9	808021	2.781456545902	71
9	817773	2.821652756323	72
9	831839	2.866899099994	73
9	846077	2.910370011499	74
9	857754	2.95272253771	75
9	866130	2.991113172335	76
9	880568	3.032075019257	77
9	892393	3.075629901715	78
9	900762	3.108134947918	79
9	915442	3.15078865894	80
9	926150	3.188557107441	81
9	936188	3.223761385589	82
9	946421	3.259553099372	83
9	959423	3.298363727856	84
9	969773	3.336077174729	85
9	980942	3.372880873697	86
9	993798	3.412284492065	87
9	1005716	3.449706013952	88
9	1015891	3.487377283963	89
9	1028588	3.526000452057	90
9	1039834	3.564071482322	91
9	1052867	3.607927278556	92
9	1064763	3.647470869758	93
9	1077020	3.688761042737	94
9	1090775	3.728683794637	95
9	1102313	3.768672779952	96
9	1113946	3.806337117674	97
9	1123057	3.841335627876	98
9	1136410	3.879935920562	99
9	1148837	3.919885051046	100
9	1160820	3.961861648744	101
9	1174420	4.001604472076	102
9	1186860	4.045054002446	103
9	1194699	4.077782395303	104
9	1208054	4.113160442054	105
9	1220270	4.157077691126	106
9	1228214	4.189484984693	107
9	1239781	4.225941912377	108
9	1254229	4.267623162371	109
9	1265936	4.312822806986	110
9	1277329	4.350900013116	111
9	1292272	4.394747102293	112
9	1300964	4.42950836848	113
9	1314514	4.472744140428	114
9	1324098	4.508728398663	115
9	1338338	4.551898817855	116
9	1347067	4.588071276594	117
9	1359102	4.631252011865	118
9	1370538	4.671804676694	119
9	1384982	4.711812436354	120
9	1395813	4.751876031699	121
9	1405897	4.788801707029	122
9	1416772	4.822907786171	123
9	1431221	4.867957425255	124
9	1443886	4.912042152652	125
9	1451522	4.946789884873	126
9	1465804	4.983160845491	127
9	1477129	5.025799581644	128
9	1486050	5.062439471775	129
9	1499335	5.105583621126	130
9	1510983	5.141984851886	131
9	1520072	5.175868550645	132
9	1533884	5.218651161853	133
9	1546702	5.258778355731	134
9	1558955	5.299944427199	135
9	1573078	5.343519034454	136
9	1584240	5.384426919579	137
9	1595919	5.424065855683	138
9	1610500	5.467353200088	139
9	1623507	5.513505631028	140
9	1632036	5.550861539994	141
9	1645268	5.593254112807	142
9	1660324	5.63869199418	143
9	1668216	5.674055625103	144
9	1679779	5.715734793147	145
9	1691833	5.751037206819	146
9	1701807	5.79098712286	147
9	1711812	5.825033502626	148
9	1726080	5.866635885442	149
9	1738327	5.9069662575	150
9	1750355	5.943538098789	151
9	1760969	5.981800775411	152
9	1774655	6.021207001731	153
9	1785779	6.066145877953	154
9	1795425	6.105497656025	155
9	1809361	6.141791479702	156
9	1818064	6.182434773542	157
9	1828886	6.217840233792	158
9	1839944	6.256250004408	159
9	1848971	6.2927460261	160
9	1863510	6.334607839249	161
9	1875542	6.37696430865	162
9	1887111	6.423839685966	163
9	1898715	6.460734883547	164
9	1909861	6.496780878974	165
9	1922846	6.535551786923	166
9	1937072	6.580335897976	167
9	1949177	6.622418581049	168
9	1963116	6.664676124552	169
9	1977218	6.708845506145	170
9	1990100	6.753481398051	171
9	2000864	6.788188877163	172
9	2013081	6.825181028917	173
9	2022364	6.862499499639	174
9	2034016	6.89910176862	175
9	2046425	6.943311965223	176
9	2057943	6.981538088835	177
9	2069718	7.023268163438	178
9	2082588	7.065706698604	179
9	2095561	7.103696817789	180
9	2110731	7.152040192104	181
9	2119768	7.189027407169	182
9	2131426	7.22579546868	183
9	2143931	7.271943214299	184
9	2157589	7.308977437057	185
9	2168761	7.348121551844	186
9	2180825	7.389123069007	187
9	2194595	7.434612272744	188
9	2203819	7.469868850017	189
9	2217959	7.508091512549	190
9	2230185	7.550211791625	191
9	2241315	7.59087887391	192
9	2252263	7.622546460882	193
9	2265114	7.667183764511	194
9	2274549	7.703681600415	195
9	2287993	7.745772427931	196
9	2299124	7.781655791249	197
9	2313597	7.825847602383	198
9	2324921	7.866584138071	199
9	2337625	7.910709958901	200
9	2351282	7.950879121525	201
9	2364562	7.993665325806	202
9	2377960	8.037763062328	203
9	2388566	8.075494953892	204
9	2401017	8.115542553119	205
9	2414484	8.159909125072	206
9	2427128	8.201580062501	207
9	2441565	8.246767729164	208
9	2454609	8.292783809739	209
9	2463589	8.329331366618	210
9	2473971	8.366346393807	211
9	2487897	8.406190687702	212
9	2498627	8.449669598273	213
9	2509538	8.490297239139	214
9	2523344	8.531494434991	215
9	2538412	8.577003368437	216
9	2546292	8.61461272215	217
9	2557389	8.650039913081	218
9	2568878	8.688930593766	219
9	2578432	8.728148355621	220
9	2593339	8.771923825892	221
9	2604983	8.808257670995	222
9	2615404	8.849624577947	223
9	2626241	8.887773998271	224
9	2638374	8.923211271122	225
9	2649228	8.966224246749	226
9	2661726	9.007210018345	227
9	2673960	9.045844209793	228
9	2684153	9.084605491243	229
9	2696863	9.12716160808	230
9	2707922	9.164922294703	231
9	2721394	9.207929825242	232
9	2731650	9.249094765929	233
9	2746022	9.286748909292	234
9	2758712	9.329722591328	235
9	2766137	9.362056796506	236
9	2779784	9.404150340992	237
9	2792192	9.444385757587	238
9	2803258	9.484576877268	239
9	2815308	9.524203062272	240
9	2826890	9.564957541198	241
9	2841160	9.603006540013	242
9	2851075	9.641632291489	243
9	2864039	9.680669395712	244
9	2872642	9.716322407497	245
9	2885865	9.757771258742	246
9	2898433	9.803532642463	247
9	2911521	9.8430295187	248
9	2923828	9.882592817661	249
9	2936996	9.92751613484	250
9	2948958	9.964477676429	251
10	0	0	0
11	0	0	0
12	0	0	0
12	6307	0.014619927824	1
12	19581	0.045500094726	2
12	25584	0.088584153792	3
12	34949	0.117912543472	4
12	47485	0.165796402911	5
12	57014	0.203760871442	6
12	71097	0.245368377432	7
12	83851	0.290187542285	8
12	91366	0.32974711127	9
12	106233	0.370870637352	10
12	118594	0.417323705961	11
12	126570	0.453888235169	12
12	140904	0.497296030775	13
12	152943	0.540048483613	14
12	162218	0.579681831113	15
12	174884	0.617642052727	16
12	187628	0.656203345906	17
12	200649	0.700557339083	18
12	213646	0.744483390265	19
12	224665	0.785286452628	20
12	236852	0.819843658824	21
12	248444	0.861116887308	22
12	258812	0.896352427386	23
12	270787	0.932630697403	24
12	283351	0.976296704287	25
12	296802	1.020516249312	26
12	308237	1.066549759097	27
12	320309	1.104601865263	28
12	331888	1.142855344229	29
12	343559	1.185779487949	30
12	355685	1.232206432109	31
12	368340	1.271551479598	32
12	382543	1.311283652375	33
12	390680	1.347286521748	34
12	402421	1.387657326786	35
12	416731	1.4316078964	36
12	427958	1.477408574725	37
12	437720	1.518570745896	38
12	448717	1.551008279285	39
12	458929	1.590072363905	40
12	471712	1.62887166524	41
12	485282	1.674786383754	42
12	498478	1.716559283905	43
12	510999	1.762307177991	44
12	519256	1.80065021518	45
12	533898	1.837606207725	46
12	543030	1.875006650341	47
12	552599	1.917059085775	48
12	565220	1.959054476518	49
12	579732	2.000481615244	50
12	592647	2.046390350473	51
12	601122	2.083863781569	52
12	611461	2.118409627045	53
12	626541	2.162403072889	54
12	638281	2.202282223652	55
12	647949	2.24328532505	56
12	657769	2.276353476774	57
12	669809	2.315240128249	58
12	676546	2.349047681842	59
12	689456	2.38335396579	60
12	699291	2.422488925216	61
12	709286	2.461165576562	62
12	720693	2.495908102117	63
12	731630	2.534948967721	64
12	743332	2.573568266844	65
12	755077	2.615589534925	66
12	766517	2.65103541044	67
12	778652	2.689694810119	68
12	792898	2.731547208188	69
12	802543	2.767516407047	70
12	816178	2.810830595011	71
12	829483	2.854703199441	72
12	840864	2.89283786119	73
12	850885	2.935923865549	74
12	864531	2.976794838285	75
12	876913	3.0183966613	76
12	884884	3.054485574877	77
12	897679	3.092745042316	78
12	909712	3.132522862416	79
12	920420	3.174413124006	80
12	931275	3.210813867085	81
12	945730	3.253029660556	82
12	955832	3.289756082776	83
12	965902	3.326130427552	84
12	978057	3.365229251981	85
12	991871	3.403695371873	86
12	1001276	3.439470545756	87
12	1012749	3.475075164922	88
12	1024285	3.515301111074	89
12	1036088	3.550848789571	90
12	1048938	3.593433618452	91
12	1060613	3.634329745983	92
12	1074969	3.675573689634	93
12	1086499	3.714964106893	94
12	1098042	3.755745208105	95
12	1109964	3.79674589486	96
12	1121212	3.834403706964	97
12	1136075	3.879033715578	98
12	1148083	3.918184466174	99
12	1158813	3.956814908874	100
12	1174572	4.002019400508	101
12	1186339	4.043767312337	102
12	1196272	4.081621335164	103
12	1209341	4.117061637455	104
12	1220509	4.157700750382	105
12	1232113	4.200052025793	106
12	1245044	4.24261218658	107
12	1257562	4.28589604266	108
12	1270238	4.328274361504	109
12	1284128	4.37311233647	110
12	1294984	4.411722205381	111
12	1308286	4.454003314574	112
12	1320941	4.491031421236	113
12	1328703	4.528777596498	114
12	1339731	4.570556030639	115
12	1353749	4.605327835306	116
12	1363153	4.641104147405	117
12	1376323	4.688600673448	118
12	1385702	4.722178821073	119
12	1399506	4.760697940307	120
12	1410305	4.800657986823	121
12	1420430	4.838393326691	122
12	1433991	4.880178326875	123
12	1446366	4.918647356415	124
12	1458939	4.964815147656	125
12	1466524	4.999020506658	126
12	1481031	5.03769540997	127
12	1493245	5.081268961891	128
12	1504106	5.125190744643	129
12	1516643	5.162948095926	130
12	1527213	5.197171735823	131
12	1538879	5.236543910591	132
12	1551326	5.277249461336	133
12	1564837	5.320348096141	134
12	1577610	5.360140631408	135
12	1588980	5.395806285698	136
12	1597320	5.433254282956	137
12	1611179	5.473936473429	138
12	1623069	5.512256265324	139
12	1633014	5.553140426702	140
12	1645891	5.595773326139	141
12	1659734	5.637284492938	142
12	1669392	5.676928603664	143
12	1679927	5.716086721579	144
12	1692144	5.751912337752	145
12	1703054	5.793892216568	146
12	1715199	5.834515626392	147
12	1726739	5.870858758965	148
12	1739664	5.91043047558	149
12	1752616	5.949308058364	150
12	1762576	5.985779705293	151
12	1776228	6.028607573371	152
12	1787894	6.070984451161	153
12	1796043	6.107112868078	154
12	1810482	6.144570961435	155
12	1819973	6.187037596821	156
12	1830823	6.226030293903	157
12	1844284	6.267070750817	158
12	1850276	6.301589303606	159
12	1865469	6.34299819706	160
12	1879128	6.385586710384	161
12	1887784	6.425613326981	162
12	1900099	6.465444040462	163
12	1913355	6.506750704677	164
12	1927016	6.549695770639	165
12	1940603	6.589269778561	166
12	1953876	6.633835872773	167
12	1963768	6.667774256393	168
12	1978385	6.712264241	169
12	1988659	6.749707029772	170
12	2001487	6.789804089216	171
12	2015292	6.830813245759	172
12	2026319	6.873217774609	173
12	2035535	6.906919948381	174
12	2049100	6.951529196908	175
12	2061272	6.990620059521	176
12	2072625	7.030477895387	177
12	2083559	7.068076398937	178
12	2096859	7.10864864381	179
12	2108110	7.145507168383	180
12	2118626	7.186211780982	181
12	2133804	7.231276993106	182
12	2143041	7.269829595841	183
12	2155929	7.303965925321	184
12	2165453	7.339725034844	185
12	2179235	7.383612541493	186
12	2187308	7.415990093937	187
12	2201375	7.454445410785	188
12	2214602	7.497773100442	189
12	2224436	7.535431093795	190
12	2236560	7.575925414535	191
12	2248693	7.612953783617	192
12	2259068	7.652256985863	193
12	2269138	7.6899014906	194
12	2282780	7.732770634557	195
12	2297208	7.772038645866	196
12	2307903	7.810649189613	197
12	2320854	7.853479999728	198
12	2332398	7.889961872902	199
12	2344014	7.926647987544	200
12	2354010	7.967571683878	201
12	2367098	8.003286071497	202
12	2380809	8.046965708148	203
12	2390939	8.084209177322	204
12	2404656	8.127644041544	205
12	2418692	8.170341994534	206
12	2427779	8.204990408354	207
12	2441134	8.245806322262	208
12	2450167	8.281571459567	209
12	2462663	8.327101578123	210
12	2474119	8.366680322239	211
12	2488630	8.408618378951	212
12	2501146	8.455460919764	213
12	2510667	8.49309527047	214
12	2523970	8.533073565924	215
12	2537255	8.574133641753	216
12	2547547	8.617525211066	217
12	2558021	8.651619125134	218
12	2572522	8.698423798349	219
12	2579740	8.731423462259	220
12	2592026	8.767710112253	221
12	2604811	8.807824599427	222
12	2616371	8.852062043161	223
12	2627054	8.889656637478	224
12	2639035	8.927184082415	225
12	2650529	8.96934640822	226
12	2662823	9.010079391362	227
12	2677243	9.054361358566	228
12	2685969	9.089406878018	229
12	2699945	9.135137189235	230
12	2709926	9.17077136519	231
12	2722972	9.211823944283	232
12	2733316	9.253281869136	233
12	2746669	9.289574744721	234
12	2758132	9.328242212156	235
12	2765808	9.361271591522	236
12	2780579	9.40632590003	237
12	2791430	9.44094623582	238
12	2803090	9.4842068057	239
12	2813282	9.518494423558	240
12	2826194	9.557127923646	241
12	2840896	9.602384333943	242
12	2851393	9.642418609393	243
12	2865161	9.683727777655	244
12	2877804	9.729411891954	245
12	2888285	9.765198761831	246
12	2898751	9.804318802232	247
12	2910391	9.839809751694	248
12	2921878	9.877544907706	249
12	2933452	9.91852742492	250
12	2947002	9.957085353179	251
12	2956373	9.993133696536	252
13	0	0	0
14	0	0	0
15	0	0	0
16	0	0	0
17	0	0	0
18	0	0	0
19	0	0	0
20	0	0	0
21	0	0	0
21	8	0	1
21	11490	0.026727111783	0
21	20273	0.07578591212	1
21	28129	0.094747274134	0
21	39895	0.14760060312	1
21	42551	0.154294524807	0
21	57081	0.204446301479	1
21	58748	0.209159894167	0
21	71668	0.250120235168	1
21	73331	0.254581838926	0
21	86149	0.299797896201	1
21	87847	0.304736511029	0
21	97741	0.345011537693	1
21	103015	0.357578311123	0
21	110246	0.397725237654	1
21	117954	0.415640941394	0
21	128280	0.462637911356	1
21	133884	0.476059688456	0
21	143142	0.516383075396	1
21	149119	0.530934531442	0
21	161027	0.576707725543	1
21	163361	0.582838705894	0
21	176173	0.623515356371	1
21	177864	0.627778949059	0
21	190850	0.672878493154	1
21	193571	0.680094121343	0
21	206457	0.724675993299	1
21	208158	0.729650608127	0
21	221657	0.777203972183	1
21	223510	0.782584335175	0
21	236971	0.82835656375	1
21	239591	0.835183084338	0
21	252217	0.874616211829	1
21	254423	0.880194516298	0
21	267224	0.919918662259	1
21	268921	0.924938266017	0
21	281889	0.972497398912	1
[...]
85	1477310	5.026225713782	0.006705037063
85	1478186	5.028445917533	0.008925240814
85	1491825	5.077939395682	0.001293625052
85	1493519	5.081897242283	0.005251471653
85	1494485	5.084178658815	0.007532888185
85	1506130	5.13045888138	0.001299625052
85	1506974	5.13252789883	0.003368642502
85	1508581	5.136250922167	0.007091665839
85	1522363	5.18224444681	0.000856477984
85	1523147	5.18415935326	0.002771384434
85	1524196	5.186606618493	0.005218649667
85	1536908	5.231734846305	0.000865456629
85	1537594	5.233387605687	0.002518216011
85	1539065	5.23703807036	0.006168680684
85	1552370	5.280120432196	0.001354719406
85	1552972	5.281421310452	0.002655597662
85	1554088	5.284205881338	0.005440168548
85	1569189	5.333924241241	0.001461830406
85	1570414	5.336866653542	0.004404242707
85	1571465	5.339520979363	0.007058568528
85	1585020	5.386485719357	0.001555816478
85	1586419	5.389754471669	0.00482456879
85	1587118	5.391335336877	0.006405433998
85	1602163	5.444549498522	0.002646614932
85	1603960	5.448720549631	0.006817666041
85	1605391	5.451942954092	0.010040070502
85	1618498	5.501357427056	0.001063608808
85	1619601	5.504120720665	0.003826902417
85	1620904	5.507237347714	0.006943529466
85	1633203	5.553611543348	0.001416608808
85	1633983	5.555445734498	0.003250799958
85	1635591	5.559277778762	0.007082844222
85	1648624	5.609590894413	0.001769755876
85	1649396	5.611238772018	0.003417633481
85	1650335	5.613513815085	0.005692676548
85	1663506	5.662633251345	0.000937456629
85	1664105	5.66420401437	0.002508219654
85	1664536	5.665332504614	0.003636709898
85	1678159	5.711959253351	0.000982456629
85	1679626	5.715398495049	0.004421698327
85	1680452	5.717565345147	0.006588548425
85	1693961	5.762438694013	0.000937477984
85	1695021	5.765102647218	0.003601431189
85	1695619	5.766989456118	0.005488240089
85	1709088	5.811455171021	0.000964456629
85	1709697	5.812971934046	0.002481219654
85	1710123	5.81445142429	0.003960709898
85	1723580	5.860368868368	0.000820456629
85	1724195	5.86201150568	0.002463093941
85	1725120	5.86425928912	0.004710877381
85	1740021	5.911320906205	0.001271644895
85	1740541	5.91282766923	0.00277840792
85	1741064	5.914137285187	0.004088023877
85	1754657	5.954836175573	0.001045477984
85	1755184	5.955946812885	0.002156115296
85	1755703	5.95725657591	0.003465878321
85	1768294	6.001872884177	0.002545301339
85	1769244	6.00399398235	0.004666399512
85	1770199	6.006144177178	0.00681659434
85	1782671	6.058842534238	0.002454071913
85	1784952	6.064093103668	0.007704641343
85	1787311	6.069542767448	0.013154305123
85	1798161	6.115232535979	0.001733947733
85	1799723	6.118975512997	0.005476924751
85	1801182	6.122565099585	0.009066511339
85	1812474	6.16581635796	0.000802456629
85	1812991	6.167151973917	0.002138072586
85	1813499	6.168659761462	0.003645860131
85	1827044	6.210124735079	0.000883477984
85	1827643	6.211551498104	0.002310241009
85	1828069	6.212724988348	0.003483731253
85	1842790	6.26348434629	0.001045477984
85	1844053	6.266463524287	0.004024655981
85	1845139	6.269297392338	0.006858524032
85	1858592	6.321801287898	0.001362714697
85	1859299	6.323463303615	0.003024730414
85	1860083	6.325478428801	0.0050398556
85	1873344	6.371876873233	0.001200605847
85	1874392	6.374122166842	0.003445899456
85	1876219	6.378598897866	0.00792263048
85	1891470	6.434473938021	0.001504835034
85	1892268	6.436360084562	0.003390981575
85	1893222	6.438680507049	0.005711404062
85	1907813	6.489426212145	0.000757477984
85	1908424	6.490996849457	0.002328115296
85	1908862	6.492152339701	0.00348360554
85	1924163	6.538698548291	0.004223280834
85	1924760	6.540034306949	0.005559039492
85	1925374	6.541615091329	0.007139823872
85	1938835	6.584861874179	0.000820456629
85	1939364	6.586053490136	0.002012072586
85	1940213	6.588247309641	0.004205892091
85	1953982	6.634116817831	0.002246776208
85	1954595	6.635669602211	0.003799560588
85	1955033	6.636933092455	0.005063050832
85	1968612	6.686538919634	0.001364658439
85	1969843	6.68958126828	0.004407007085
85	1970269	6.690754758524	0.005580497329
85	1983820	6.732068875806	0.000991456629
85	1984431	6.733639513118	0.002562093941
85	1984857	6.734597003362	0.003519584185
85	1998286	6.774703632326	0.000775456629
85	1998896	6.776247269638	0.002319093941
85	1999333	6.777582759882	0.003654584185
85	2013431	6.826188458356	0.001379715277
85	2014044	6.827750221381	0.002941478302
85	2014480	6.828842711625	0.004033968546
85	2030012	6.881915406574	0.001361637921
85	2030628	6.883513043886	0.002959275233
85	2031064	6.88465953413	0.004105765477
85	2044531	6.935109344813	0.000964477984
85	2045056	6.93635496077	0.002210093941
85	2045576	6.937925576727	0.003780709898
85	2059706	6.98670836656	0.000856477984
85	2060300	6.988241950628	0.002390062052
85	2061380	6.990861004579	0.005009116003
85	2075475	7.037524086907	0.000955477984
85	2075829	7.038398405563	0.00182979664
85	2076526	7.040196214463	0.00362760554
85	2090698	7.088526388206	0.000883477984
85	2091226	7.089817025518	0.002174115296
85	2091747	7.091126813063	0.003483902841
85	2105472	7.139167821484	0.001516816909
85	2106437	7.141403179109	0.003752174534
85	2107796	7.144709644552	0.007058639977
85	2121916	7.194719628346	0.001426816909
85	2122706	7.196430669164	0.003137857727
85	2123666	7.198678885347	0.00538607391
85	2136245	7.239763128355	0.000955456629
85	2136857	7.241189765667	0.002382093941
85	2137558	7.243023535632	0.004215863906
85	2151069	7.291624863665	0.001899814296
85	2152680	7.295458572913	0.005733523544
85	2153461	7.297416536584	0.007691487215
85	2167250	7.344425745179	0.001181626837
85	2167779	7.345752508204	0.002508389862
85	2168942	7.348515683982	0.00527156564
85	2182415	7.393593794425	0.001045477984
85	2182936	7.395010431737	0.002462115296
85	2183539	7.396654182196	0.004105865755
85	2196979	7.442051944213	0.000775456629
85	2197510	7.443315581525	0.002039093941
85	2198032	7.444679197482	0.003402709898
85	2211474	7.490358115017	0.001000477984
85	2212264	7.492262552716	0.002904915683
85	2213553	7.495305203433	0.0059475664
85	2227276	7.543021542621	0.001018477984
85	2227630	7.543931861277	0.00192879664
85	2228325	7.545477774535	0.003474709898
85	2243070	7.595508809825	0.000973456629
85	2243602	7.596871425782	0.002336072586
85	2244123	7.598055063094	0.003519709898
85	2257644	7.648861941994	0.000865456629
85	2258922	7.651938759333	0.003942273968
85	2259704	7.653718734695	0.00572224933
85	2274645	7.703881473905	0.004295387745
85	2275334	7.705587315305	0.006001229145
85	2276033	7.707313234187	0.007727148027
85	2289319	7.749447701758	0.001018477984
85	2289847	7.750585317715	0.002156093941
85	2290629	7.75247438683	0.004045163056
85	2303827	7.796885383261	0.000856456629
85	2304356	7.798176020573	0.002147093941
85	2304876	7.799665808118	0.003636881486
85	2318323	7.844437252851	0.001108477984
85	2318934	7.846008037231	0.002679262364
85	2319857	7.848309977359	0.004981202492
85	2334263	7.895395226022	0.001135477984
85	2334700	7.896405716266	0.002145968228
85	2335315	7.898022500646	0.003762752608
85	2349442	7.946254140861	0.000946456629
85	2350049	7.947671925241	0.002364241009
85	2350475	7.948854415485	0.003546731253
85	2364401	7.993338027708	0.002020770676
85	2365089	7.994800846855	0.003483589823
85	2365611	7.9961646344	0.004847377368
85	2379745	8.044529622206	0.000829477984
85	2380916	8.047156653206	0.003456508984
85	2381430	8.048556440751	0.004856296529
85	2394876	8.094515586344	0.000892456629
85	2395488	8.096113370724	0.002490241009
85	2396251	8.098108167973	0.004485038258
85	2410026	8.142501248583	0.000964477984
85	2410554	8.143782885895	0.002246115296
85	2411073	8.144876523207	0.003339752608
85	2424560	8.193267010526	0.000982477984
85	2425252	8.195107925211	0.002823392669
85	2426305	8.197960891642	0.0056763591
85	2439754	8.242562143869	0.000982456629
85	2441661	8.247039602654	0.005459915414
85	2442582	8.249355583899	0.007775896659
85	2456263	8.297093810127	0.001045477984
85	2456795	8.298519447439	0.002471115296
85	2457315	8.299829063396	0.003780731253
85	2469064	8.342561314184	0.001266750765
85	2469944	8.344421502169	0.00312693875
85	2470986	8.346959114549	0.00566455113
85	2484715	8.398526893113	0.001653899983
85	2485948	8.401479486173	0.004606493043
85	2486825	8.403615595115	0.006742601985
85	2502567	8.458985673875	0.000983625052
85	2503095	8.460060311187	0.002058262364
85	2503615	8.461234948499	0.003232899676
85	2516617	8.508044346132	0.001949134281
85	2517669	8.510635707855	0.004540496004
85	2518518	8.512685675713	0.006590463862
85	2533499	8.564977211062	0.001604738199
85	2534298	8.566980262597	0.003607789734
85	2535168	8.569029433856	0.005656960993
85	2549929	8.623140403412	0.000932625052
85	2550985	8.625794619595	0.003586841235
85	2552691	8.629996348453	0.007788570093
85	2566231	8.682309348045	0.002139301339
85	2567357	8.685031605852	0.004861559146
85	2568057	8.686711680058	0.006541633352
85	2583524	8.7406358292	0.000919477984
85	2584057	8.742016466512	0.002300115296
85	2584664	8.743435198178	0.003718846962
85	2595882	8.786975790577	0.001685963977
85	2596822	8.789250046535	0.003960219935
85	2597599	8.791146010206	0.005856183606
85	2609810	8.834039302538	0.001009456629
85	2610409	8.83555593985	0.002526093941
85	2610835	8.836639430094	0.003609584185
85	2625030	8.884859781216	0.000865456629
85	2626829	8.889157285235	0.005162960648
85	2627936	8.891799868975	0.007805544388
85	2640969	8.93282743494	0.001263169736
85	2642047	8.935652581048	0.004088315844
85	2642483	8.936808071292	0.005243806088
85	2656001	8.983061005666	0.000865456629
85	2656621	8.98458677748	0.002391228443
85	2657408	8.98643990395	0.004244354913
85	2671150	9.038848939128	0.000892456629
85	2672117	9.04112620704	0.003169724541
85	2673388	9.044492534803	0.006536052304
85	2687744	9.094176745617	0.000802477984
85	2688792	9.096509227106	0.003134959473
85	2689749	9.098850575942	0.005476308309
85	2704814	9.154209249812	0.001966128853
85	2705868	9.156466597332	0.004223476373
85	2706646	9.158300666447	0.006057545488
85	2721151	9.207359401431	0.002522013394
85	2722479	9.210555745238	0.005718357201
85	2723691	9.213529774914	0.008692386877
85	2738237	9.26541054331	0.002565906622
85	2739377	9.268119184622	0.005274547934
85	2740344	9.270527479084	0.007682842396
85	2753181	9.316952995001	0.00171289419
85	2753976	9.318668012451	0.00342791164
85	2754844	9.320789176969	0.005549076158
85	2769290	9.371124212174	0.00174889419
85	2769899	9.37250009043	0.003124772446
85	2771013	9.37516861083	0.005793292846
85	2783682	9.422103122858	0.001009456629
85	2784199	9.42352876017	0.002435093941
85	2784898	9.425092785972	0.003999119743
85	2798266	9.469106351177	0.000793456629
85	2798696	9.470296841421	0.001983946873
85	2799294	9.471985478733	0.003672584185
85	2813473	9.518911540204	0.00159665687
85	2814072	9.520482303229	0.003167419895
85	2814498	9.521754793473	0.004439910139
85	2829259	9.571256422112	0.000973477984
85	2829776	9.572484038069	0.002201093941
85	2830286	9.573721825614	0.003438881486
85	2843779	9.614444952642	0.001018456629
85	2844378	9.616060589954	0.002634093941
85	2844810	9.617333080198	0.003906584185
85	2859064	9.667274565353	0.000820477984
85	2859581	9.668646202665	0.002192115296
85	2860089	9.669856818622	0.003402731253
85	2875107	9.722582870269	0.00136277212
85	2875952	9.724756866006	0.003536767857
85	2877398	9.728403221055	0.007183122906
85	2890069	9.771621455352	0.001108477984
85	2890941	9.77358250887	0.003069531502
85	2891728	9.775564390322	0.005051412954
85	2905758	9.822185352088	0.001685747122
85	2906988	9.825037083045	0.004537478079
85	2908274	9.827917533658	0.007417928692
85	2919877	9.872732876698	0.000748477984
85	2920907	9.875324876972	0.003340478258
85	2922327	9.8787101469	0.006725748186
85	2935095	9.922657067616	0.000838456629
85	2935699	9.924371704928	0.002553093941
85	2936754	9.926899836742	0.005081225755
85	2950881	9.969869494355	0.000820477984
85	2951398	9.971124131667	0.002075115296
85	2951911	9.972442919212	0.003393902841
86	1148838	3.919885051046	-197364.68966042
86	1186861	4.019885051046	240000
86	1220271	4.119885051046	360000
86	1239782	4.219885051046	240000
86	1277330	4.319885051046	360000
86	1300965	4.419885051046	240000
86	1338339	4.519885051046	360000
86	1359103	4.619885051046	240000
86	1395814	4.719885051046	360000
86	1416773	4.819885051046	240000
86	1451523	4.919885051046	360000
86	1477130	5.019885051046	240000
86	1510984	5.119885051046	360000
86	1546703	5.219885051046	360000
86	1573079	5.319885051046	240000
86	1595920	5.419885051046	240000
86	1632037	5.519885051046	360000
86	1660325	5.619885051046	240000
86	1691834	5.719885051046	360000
86	1711813	5.819885051046	240000
86	1750356	5.919885051046	360000
86	1774656	6.019885051046	240000
86	1809362	6.119885051046	360000
86	1839945	6.219885051046	360000
86	1863511	6.319885051046	240000
86	1887112	6.419885051046	240000
86	1922847	6.519885051046	360000
86	1949178	6.619885051046	240000
86	1990101	6.719885051046	360000
86	2013082	6.819885051046	240000
86	2046426	6.919885051046	360000
86	2069719	7.019885051046	240000
86	2110732	7.119885051046	360000
86	2131427	7.219885051046	240000
86	2168762	7.319885051046	360000
86	2194596	7.419885051046	240000
86	2230186	7.519885051046	360000
86	2252264	7.619885051046	240000
86	2287994	7.719885051046	360000
86	2313598	7.819885051046	240000
86	2351283	7.919885051046	360000
86	2377961	8.019885051046	240000
86	2414485	8.119885051046	360000
86	2441566	8.219885051046	240000
86	2463590	8.319885051046	240000
86	2498628	8.419885051046	360000
86	2523345	8.519885051046	240000
86	2557390	8.619885051046	360000
86	2578433	8.719885051046	240000
86	2615405	8.819885051046	360000
86	2638375	8.919885051046	240000
86	2673961	9.019885051046	360000
86	2696864	9.119885051046	240000
86	2731651	9.219885051046	360000
86	2758713	9.319885051046	240000
86	2792193	9.419885051046	360000
86	2815309	9.519885051046	240000
86	2851076	9.619885051046	360000
86	2885866	9.719885051046	360000
86	2911522	9.819885051046	240000
86	2936997	9.919885051046	240000
86	2957139	10	299569.55990548
87	1151114	3.92519734003	-197537.28098979
87	1188386	4.02519734003	240000
87	1223171	4.12519734003	360000
87	1247642	4.22519734003	240000
87	1271602	4.32519734003	240000
87	1308145	4.42519734003	360000
87	1332144	4.52519734003	240000
87	1365096	4.62519734003	360000
87	1400797	4.72519734003	360000
87	1425384	4.82519734003	240000
87	1450692	4.92519734003	240000
87	1484408	5.02519734003	360000
87	1509078	5.12519734003	240000
87	1543839	5.22519734003	360000
87	1580123	5.32519734003	360000
87	1604209	5.42519734003	240000
87	1635758	5.52519734003	360000
87	1661074	5.62519734003	240000
87	1694936	5.72519734003	360000
87	1720251	5.82519734003	240000
87	1748821	5.92519734003	240000
87	1783091	6.02519734003	360000
87	1809202	6.12519734003	240000
87	1844968	6.22519734003	360000
87	1865170	6.32519734003	240000
87	1899463	6.42519734003	360000
87	1924075	6.52519734003	240000
87	1958682	6.62519734003	360000
87	1992070	6.72519734003	360000
87	2016655	6.82519734003	240000
87	2052251	6.92519734003	360000
87	2077380	7.02519734003	240000
87	2101570	7.12519734003	240000
87	2140815	7.22519734003	360000
87	2164206	7.32519734003	240000
87	2191353	7.42519734003	240000
87	2230937	7.52519734003	360000
87	2252935	7.62519734003	240000
87	2285361	7.72519734003	360000
87	2323717	7.82519734003	360000
87	2348301	7.92519734003	240000
87	2383093	8.02519734003	360000
87	2407590	8.12519734003	240000
87	2442747	8.22519734003	360000
87	2465470	8.32519734003	240000
87	2499989	8.42519734003	360000
87	2523830	8.52519734003	240000
87	2558697	8.62519734003	360000
87	2581686	8.72519734003	240000
87	2616551	8.82519734003	360000
87	2641962	8.92519734003	240000
87	2676003	9.02519734003	360000
87	2697300	9.12519734003	240000
87	2730925	9.22519734003	360000
87	2759147	9.32519734003	240000
87	2793502	9.42519734003	360000
87	2815963	9.52519734003	240000
87	2853826	9.62519734003	360000
87	2887655	9.72519734003	360000
87	2910895	9.82519734003	240000
87	2937580	9.92519734003	240000
87	2957139	10	320844.20540159
88	1158814	3.956814908874	-198570.783768
88	1196273	4.056814908874	240000
88	1220510	4.156814908874	240000
88	1257563	4.256814908874	360000
88	1284129	4.356814908874	240000
88	1320942	4.456814908874	360000
88	1339732	4.556814908874	240000
88	1376324	4.656814908874	360000
88	1399507	4.756814908874	240000
88	1433992	4.856814908874	360000
88	1458940	4.956814908874	240000
88	1493246	5.056814908874	360000
88	1516644	5.156814908874	240000
88	1551327	5.256814908874	360000
88	1577611	5.356814908874	240000
88	1611180	5.456814908874	360000
88	1645892	5.556814908874	360000
88	1669393	5.656814908874	240000
88	1703055	5.756814908874	360000
88	1726740	5.856814908874	240000
88	1762577	5.956814908874	360000
88	1787895	6.056814908874	240000
88	1819974	6.156814908874	360000
88	1844285	6.256814908874	240000
88	1879129	6.356814908874	360000
88	1900100	6.456814908874	240000
88	1940604	6.556814908874	360000
88	1963769	6.656814908874	240000
88	2001488	6.756814908874	360000
88	2026320	6.856814908874	240000
88	2061273	6.956814908874	360000
88	2083560	7.056814908874	240000
88	2118627	7.156814908874	360000
88	2143042	7.256814908874	240000
88	2179236	7.356814908874	360000
88	2214603	7.456814908874	360000
88	2236561	7.556814908874	240000
88	2269139	7.656814908874	360000
88	2297209	7.756814908874	240000
88	2332399	7.856814908874	360000
88	2354011	7.956814908874	240000
88	2390940	8.056814908874	360000
88	2418693	8.156814908874	240000
88	2450168	8.256814908874	360000
88	2474120	8.356814908874	240000
88	2510668	8.456814908874	360000
88	2537256	8.556814908874	240000
88	2572523	8.656814908874	360000
88	2592027	8.756814908874	240000
88	2627055	8.856814908874	360000
88	2650530	8.956814908874	240000
88	2685970	9.056814908874	360000
88	2709927	9.156814908874	240000
88	2746670	9.256814908874	360000
88	2765809	9.356814908874	240000
88	2803091	9.456814908874	360000
88	2826195	9.556814908874	240000
88	2865162	9.656814908874	360000
88	2888286	9.756814908874	240000
88	2921879	9.856814908874	360000
88	2947003	9.956814908874	240000
88	2957139	10	555747.35109336
89	1161137	3.962619867515	-198761.7101569
89	1196047	4.062619867515	240000
89	1230101	4.162619867515	360000
89	1254939	4.262619867515	240000
89	1292438	4.362619867515	360000
89	1313858	4.462619867515	240000
89	1346734	4.562619867515	360000
89	1369886	4.662619867515	240000
89	1404564	4.762619867515	360000
89	1430329	4.862619867515	240000
89	1465167	4.962619867515	360000
89	1496890	5.062619867515	360000
89	1519346	5.162619867515	240000
89	1557480	5.262619867515	360000
89	1580693	5.362619867515	240000
89	1615409	5.462619867515	360000
89	1641662	5.562619867515	240000
89	1676407	5.662619867515	360000
89	1696497	5.762619867515	240000
89	1725923	5.862619867515	240000
89	1761706	5.962619867515	360000
89	1786543	6.062619867515	240000
89	1820765	6.162619867515	360000
89	1849654	6.262619867515	360000
89	1877707	6.362619867515	240000
89	1910679	6.462619867515	360000
89	1935142	6.562619867515	240000
89	1974307	6.662619867515	360000
89	2000387	6.762619867515	240000
89	2024718	6.862619867515	240000
89	2062108	6.962619867515	360000
89	2084620	7.062619867515	240000
89	2119935	7.162619867515	360000
89	2144182	7.262619867515	240000
89	2180579	7.362619867515	360000
89	2214950	7.462619867515	360000
89	2237058	7.562619867515	240000
89	2273331	7.662619867515	360000
89	2297793	7.762619867515	240000
89	2330348	7.862619867515	360000
89	2366438	7.962619867515	360000
89	2389487	8.062619867515	240000
89	2426216	8.162619867515	360000
89	2447418	8.262619867515	240000
89	2483057	8.362619867515	360000
89	2505552	8.462619867515	240000
89	2539207	8.562619867515	360000
89	2562315	8.662619867515	240000
89	2601432	8.762619867515	360000
89	2623260	8.862619867515	240000
89	2660849	8.962619867515	360000
89	2678507	9.062619867515	240000
89	2715649	9.162619867515	360000
89	2738057	9.262619867515	240000
89	2772022	9.362619867515	360000
89	2806480	9.462619867515	360000
89	2831116	9.562619867515	240000
89	2857680	9.662619867515	240000
89	2894920	9.762619867515	360000
89	2918105	9.862619867515	240000
89	2955729	9.962619867515	360000
89	2957139	10	321026.14951446

