version 3
run TCP2-0-20241031-17:52:11-14592
attr configname TCP2
attr datetime 20241031-17:52:11
attr datetimef 20241031-175211
attr experiment TCP2
attr inifile omnetpp.ini
attr iterationvars ""
attr iterationvarsd ""
attr iterationvarsf ""
attr measurement ""
attr network MixedWLAN
attr processid 14592
attr repetition 0
attr replication #0
attr resultdir results
attr runnumber 0
attr seedset 0
config image-path ../../inet4.5/images
config **.numHostsTCP 3
config **.numHostsUDP 0
config network MixedWLAN
config sim-time-limit 10s
config **.mac.**.vector-recording false
config **.mac.**.bin-recording false
config **.tcp.**.vector-recording false
config **.tcp.**.bin-recording false
config **.radio.**.vector-recording false
config **.radio.**.bin-recording false
config **.constraintAreaMinX 0m
config **.constraintAreaMinY 0m
config **.constraintAreaMinZ 0m
config **.constraintAreaMaxX 50m
config **.constraintAreaMaxY 50m
config **.constraintAreaMaxZ 0m
config **.ap.wlan[*].address "\"10:00:00:00:00:00\""
config **.*host*.**.mgmt.accessPointAddress "\"10:00:00:00:00:00\""
config **.numApps 1
config **.udphost[0].app[*].typename UdpEchoApp
config **.udphost[0].app[*].localPort 3088
config **.udphost[*].app[*].typename UdpBasicApp
config **.udphost[*].app[*].destAddresses "\"udphost[0]\""
config **.udphost[*].app[*].messageLength 1500B
config **.udphost[*].app[*].sendInterval "40ms + uniform(-5ms, 5ms)"
config **.udphost[*].app[*].destPort 3088
config **.udphost[*].app[*].startTime 0s
config **.udphost[*].app[*].stopTime -1s
config **.tcphost[0].numApps 1
config **.tcphost[0].app[*].typename TcpGenericServerApp
config **.tcphost[0].app[0].localPort 1000
config **.tcphost[0].app[0].active true
config **.tcphost[*].numApps 1
config **.tcphost[*].app[*].typename TcpBasicClientApp
config **.tcphost[*].app[0].active true
config **.tcphost[*].app[0].connectAddress "\"tcphost[0]\""
config **.tcphost[*].app[0].connectPort 1000
config **.tcphost[*].app[0].startTime 0s
config **.tcphost[*].app[0].stopTime -1s
config **.tcphost[*].app[0].thinkTime 0s
config **.tcphost[*].app[0].idleInterval "40ms + uniform(-5ms, 5ms)"
config **.tcphost[*].app[0].reconnectInterval 0s
config **.tcphost[*].app[0].numRequestsPerSession 1
config **.tcphost[*].app[0].requestLength 1500B
config **.tcphost[*].app[0].replyLength 1500B
config **.wlan[*].bitrate 433.3Mbps
config **.wlan[*].mac.dcf.channelAccess.pendingQueue.packetCapacity 40
config **.wlan[*].mac.dcf.channelAccess.cwMin 20
config **.bandName "\"5 GHz (20 MHz)\""
config **.opMode "\"ac\""
config **.wlan[*].radio.antenna.numAntennas 8
config **.wlan[*].radio.transmitter.power 10mW
config **.wlan[*].radio.transmitter.headerLength 192b
config **.wlan[*].radio.transmitter.centerFrequency 5GHz
config **.wlan[*].radio.receiver.sensitivity -85dBm
config **.wlan[*].radio.receiver.snirThreshold 4dB

vector 0 MixedWLAN.tcphost[0].udp passedUpPk:vector(count) ETV
attr interpolationmode none
attr recordingmode vector(count)
attr source packetSentToUpper
attr title "packets passed up, count"
vector 1 MixedWLAN.tcphost[0].udp droppedPkWrongPort:vector(count) ETV
attr interpolationmode none
attr recordingmode vector(count)
attr source packetDropReasonIsNoPortFound(packetDropped)
attr title "packets dropped (wrong port), count"
vector 2 MixedWLAN.tcphost[0].udp droppedPkBadChecksum:vector(count) ETV
attr interpolationmode none
attr recordingmode vector(count)
attr source packetDropReasonIsIncorrectlyReceived(packetDropped)
attr title "packets dropped (checksum error), count"
vector 3 MixedWLAN.tcphost[1].udp passedUpPk:vector(count) ETV
attr interpolationmode none
attr recordingmode vector(count)
attr source packetSentToUpper
attr title "packets passed up, count"
vector 4 MixedWLAN.tcphost[1].udp droppedPkWrongPort:vector(count) ETV
attr interpolationmode none
attr recordingmode vector(count)
attr source packetDropReasonIsNoPortFound(packetDropped)
attr title "packets dropped (wrong port), count"
vector 5 MixedWLAN.tcphost[1].udp droppedPkBadChecksum:vector(count) ETV
attr interpolationmode none
attr recordingmode vector(count)
attr source packetDropReasonIsIncorrectlyReceived(packetDropped)
attr title "packets dropped (checksum error), count"
vector 6 MixedWLAN.tcphost[1].app[0] numActiveSessions:vector ETV
attr autoWarmupFilter false
attr interpolationmode sample-hold
attr recordingmode vector
attr source warmup(sum(connect))
attr title "number of active sessions"
vector 7 MixedWLAN.tcphost[2].udp passedUpPk:vector(count) ETV
attr interpolationmode none
attr recordingmode vector(count)
attr source packetSentToUpper
attr title "packets passed up, count"
vector 8 MixedWLAN.tcphost[2].udp droppedPkWrongPort:vector(count) ETV
attr interpolationmode none
attr recordingmode vector(count)
attr source packetDropReasonIsNoPortFound(packetDropped)
attr title "packets dropped (wrong port), count"
vector 9 MixedWLAN.tcphost[2].udp droppedPkBadChecksum:vector(count) ETV
attr interpolationmode none
attr recordingmode vector(count)
attr source packetDropReasonIsIncorrectlyReceived(packetDropped)
attr title "packets dropped (checksum error), count"
vector 10 MixedWLAN.tcphost[2].app[0] numActiveSessions:vector ETV
attr autoWarmupFilter false
attr interpolationmode sample-hold
attr recordingmode vector
attr source warmup(sum(connect))
attr title "number of active sessions"
vector 11 MixedWLAN.tcphost[1].ipv4.arp arpRequestSent:vector(packetBytes) ETV
attr recordingmode vector(packetBytes)
attr source arpRequestSent
attr title "ARP request sent, packetBytes"
vector 12 MixedWLAN.tcphost[2].ipv4.arp arpRequestSent:vector(packetBytes) ETV
attr recordingmode vector(packetBytes)
attr source arpRequestSent
attr title "ARP request sent, packetBytes"
vector 13 MixedWLAN.tcphost[0].ipv4.arp arpReplySent:vector(packetBytes) ETV
attr recordingmode vector(packetBytes)
attr source arpReplySent
attr title "ARP replies sent, packetBytes"
vector 14 MixedWLAN.tcphost[1].app[0] packetSent:vector(packetBytes) ETV
attr interpolationmode none
attr recordingmode vector(packetBytes)
attr source packetSent
attr title "packets sent, packetBytes"
vector 15 MixedWLAN.tcphost[2].app[0] packetSent:vector(packetBytes) ETV
attr interpolationmode none
attr recordingmode vector(packetBytes)
attr source packetSent
attr title "packets sent, packetBytes"
vector 16 MixedWLAN.tcphost[0].app[0] packetReceived:vector(packetBytes) ETV
attr interpolationmode none
attr recordingmode vector(packetBytes)
attr source packetReceived
attr title "packets received, packetBytes"
vector 17 MixedWLAN.tcphost[0].app[0] endToEndDelay:vector ETV
attr interpolationmode none
attr recordingmode vector
attr source dataAge(packetReceived)
attr title "end-to-end delay"
attr unit s
vector 18 MixedWLAN.tcphost[0].app[0] packetSent:vector(packetBytes) ETV
attr interpolationmode none
attr recordingmode vector(packetBytes)
attr source packetSent
attr title "packets sent, packetBytes"
vector 19 MixedWLAN.tcphost[1].app[0] packetReceived:vector(packetBytes) ETV
attr interpolationmode none
attr recordingmode vector(packetBytes)
attr source packetReceived
attr title "packets received, packetBytes"
vector 20 MixedWLAN.tcphost[1].app[0] endToEndDelay:vector ETV
attr interpolationmode none
attr recordingmode vector
attr source dataAge(packetReceived)
attr title "end-to-end delay"
attr unit s
vector 21 MixedWLAN.tcphost[2].app[0] packetReceived:vector(packetBytes) ETV
attr interpolationmode none
attr recordingmode vector(packetBytes)
attr source packetReceived
attr title "packets received, packetBytes"
vector 22 MixedWLAN.tcphost[2].app[0] endToEndDelay:vector ETV
attr interpolationmode none
attr recordingmode vector
attr source dataAge(packetReceived)
attr title "end-to-end delay"
attr unit s
0	0	0	0
1	0	0	0
2	0	0	0
3	0	0	0
4	0	0	0
5	0	0	0
6	0	0	0
6	2	0	1
6	1591	0.00929071811	0
6	2888	0.054957016502	1
6	3900	0.06057628347	0
6	5510	0.106367890784	1
6	6223	0.111009584302	0
6	8132	0.149555434796	1
6	8845	0.15391814266	0
6	10754	0.200935005121	1
6	11505	0.205568723881	0
6	13376	0.24797760835	1
6	14089	0.252934301868	0
6	15998	0.294995091335	1
6	16711	0.299510799199	0
6	18620	0.341899817873	1
6	19333	0.346550525737	0
6	21242	0.391565627814	1
6	22065	0.396606478504	0
6	23864	0.437459674613	1
6	24577	0.441543368131	0
6	26486	0.488826080006	1
6	27199	0.49371078787	0
6	29108	0.541375627317	1
6	29931	0.546722445441	0
6	31730	0.589425061855	1
6	32443	0.593652769719	0
6	34352	0.636426797813	1
6	35065	0.641320491331	0
6	36974	0.688095801132	1
6	38091	0.695089080472	0
6	39628	0.739311172759	1
6	40448	0.744810876755	0
6	42282	0.785211784535	1
6	42995	0.790033478053	0
6	44904	0.834785791798	1
6	45617	0.83951747097	0
6	47526	0.882903183936	1
6	48239	0.887193863108	0
6	50148	0.933569136169	1
6	50861	0.938444844033	0
6	52770	0.982075358253	1
6	53483	0.987113066117	0
6	55392	1.025653134881	1
6	56105	1.029997842745	0
6	58014	1.077748977683	1
6	58727	1.082336671201	0
6	60636	1.1226194723	1
6	61349	1.127351165818	0
6	63258	1.167149499329	1
6	63971	1.171755192847	0
6	65880	1.21931116187	1
6	66593	1.223934841042	0
6	68502	1.266767131692	1
6	69215	1.27136382521	0
6	71124	1.31208027328	1
6	71837	1.317036966798	0
6	73746	1.36196411609	1
6	74459	1.366911823954	0
6	76368	1.412392133643	1
6	77081	1.417249812815	0
6	78990	1.458197000856	1
6	79703	1.462667680028	0
6	81612	1.503661826029	1
6	82325	1.508456505201	0
6	84234	1.54764575038	1
6	84947	1.552620429552	0
6	86840	1.590287139526	1
6	87569	1.595324833044	0
6	89478	1.640069176477	1
6	90191	1.644791855649	0
6	92052	1.683984506458	1
6	92809	1.688788199976	0
6	94679	1.734464477213	1
6	95433	1.738935170731	0
6	97206	1.778094191529	1
6	98009	1.783076715583	0
6	99898	1.821513946558	1
6	100639	1.826155640076	0
6	101972	1.867158852925	1
6	103279	1.874609003665	0
6	104342	1.913870507937	1
6	105931	1.922766953062	0
6	107845	1.969584822565	1
6	108596	1.974073516083	0
6	110454	2.020314006574	1
6	111206	2.024883700092	0
6	113074	2.068393452994	1
6	113825	2.073152146512	0
6	115755	2.120027124388	1
6	116475	2.124614832252	0
6	118384	2.171921621036	1
6	119097	2.176509300208	0
6	121006	2.223080684562	1
6	121719	2.22791137808	0
6	123628	2.266222576005	1
6	124341	2.270846283869	0
6	126244	2.3108815817	1
6	126963	2.315163275218	0
6	128862	2.360228087675	1
6	129585	2.364914781193	0
6	131468	2.410599455614	1
6	132207	2.414791163478	0
6	134112	2.458051313865	1
6	134829	2.462666021729	0
6	136720	2.500535213463	1
6	137451	2.505572906981	0
6	139330	2.544624474831	1
6	140073	2.549428168349	0
6	141960	2.590175460384	1
6	142695	2.594808153902	0
6	144552	2.634089473053	1
6	145305	2.638731166571	0
6	147188	2.680567405153	1
6	147939	2.685326098671	0
6	149802	2.723250482863	1
6	150555	2.727964162035	0
6	152226	2.768950157133	1
6	153135	2.774331861161	0
6	154647	2.816045302956	1
6	155751	2.822435049547	0
6	157175	2.862005767445	1
6	158371	2.868684045436	0
6	159284	2.912146678719	1
6	160845	2.921434644978	0
6	161724	2.967326107574	1
6	163245	2.975984515398	0
6	164269	3.016488592763	1
6	165020	3.021383325869	0
6	166891	3.06615529123	1
6	167936	3.07267555778	0
6	169513	3.114931267276	1
6	170226	3.119545960794	0
6	172135	3.162433774973	1
6	172848	3.167264468491	0
6	174757	3.208096309739	1
6	175470	3.212621017603	0
6	177379	3.255842224183	1
6	178092	3.260528917701	0
6	180001	3.300377377772	1
6	180714	3.30461407129	0
6	182623	3.349921399375	1
6	183336	3.354221092893	0
6	185245	3.398354243127	1
6	185958	3.403013922299	0
6	187867	3.445278041304	1
6	188580	3.449352734822	0
6	190489	3.49303619496	1
6	191202	3.497560888478	0
6	193111	3.544012688084	1
6	193824	3.548573381602	0
6	195733	3.591526703298	1
6	196446	3.59614138247	0
6	198355	3.634566612778	1
6	199068	3.63920829195	0
6	200977	3.680395538031	1
6	201690	3.685055217203	0
6	203599	3.728525889236	1
6	204312	3.733104582754	0
6	206221	3.778292236238	1
6	206934	3.782798929756	0
6	208843	3.825314266064	1
6	209556	3.830279959582	0
6	211465	3.869653960666	1
6	212178	3.874106654184	0
6	214087	3.91344826841	1
6	214800	3.918539961928	0
6	216709	3.955989750976	1
6	217422	3.96079345884	0
6	219331	4.005922797639	1
6	220044	4.010456491157	0
6	221953	4.053994646013	1
6	222666	4.058933353877	0
6	224575	4.104324734826	1
6	225288	4.10926344269	0
6	227197	4.151579342101	1
6	227910	4.156581049965	0
6	229819	4.195526242573	1
6	230532	4.200275936091	0
6	232421	4.242265821415	1
6	233154	4.246682500587	0
6	234958	4.285201211979	1
6	235729	4.290120870181	0
6	237218	4.334769567621	1
6	238342	4.34132421843	0
6	240245	4.38327767323	1
6	240998	4.387937352402	0
6	242861	4.432004303779	1
6	243606	4.436907011643	0
6	245499	4.479249845763	1
6	246252	4.483963524935	0
6	248119	4.528753966837	1
6	248870	4.533269674701	0
6	250727	4.578962635504	1
6	251478	4.583397329022	0
6	253349	4.624986799429	1
6	254080	4.629655507293	0
6	255971	4.671007093935	1
6	256711	4.675972773107	0
6	258619	4.71906394347	1
6	259370	4.723426636988	0
6	261215	4.761252225566	1
6	261960	4.76610993343	0
6	263366	4.80950943759	1
6	264570	4.816756694511	0
6	265995	4.856248043053	1
6	267190	4.863071333125	0
6	268617	4.90675507421	1
6	269810	4.913857154878	0
6	271548	4.958368689289	1
6	272430	4.963443886593	0
6	274130	5.009474740017	1
6	275056	5.015164652651	0
6	275716	5.055480308743	1
6	277010	5.063198739457	0
6	278326	5.103596013973	1
6	279039	5.108237707491	0
6	280948	5.150741510484	1
6	281661	5.155815189656	0
6	283570	5.200602709721	1
6	284283	5.205217403239	0
6	286192	5.248844969358	1
6	287092	5.254446084086	0
6	288814	5.298747096099	1
6	289527	5.303163789617	0
6	291436	5.344015360469	1
6	292149	5.348585053987	0
6	294058	5.395959832876	1
6	294771	5.400556526394	0
6	296680	5.444163542811	1
6	297393	5.448949221983	0
6	299302	5.489562320156	1
6	300015	5.49420402802	0
6	301924	5.536396121429	1
6	302637	5.540947814947	0
6	304546	5.579266487261	1
6	305259	5.583926166433	0
6	307168	5.628698204542	1
6	307881	5.633474883714	0
6	309790	5.671349312009	1
6	310503	5.675892019873	0
6	312412	5.717661281617	1
6	313125	5.722761975135	0
6	315034	5.764208241564	1
6	315747	5.769236935082	0
6	317656	5.807907451077	1
6	318369	5.812684144595	0
6	320225	5.851947690067	1
6	320977	5.856760383585	0
6	322857	5.900829306467	1
6	323611	5.905479999985	0
6	325458	5.943644705489	1
6	326217	5.948673399007	0
6	328102	5.993019964489	1
6	328854	5.997571658007	0
6	330740	6.0399318923	1
6	331479	6.044294585818	0
6	333348	6.086368632019	1
6	334101	6.091163339883	0
6	335982	6.130652983604	1
6	336723	6.135105677122	0
6	338632	6.180940117356	1
6	339345	6.18560882522	0
6	341254	6.232612514368	1
6	341967	6.236759207886	0
6	343876	6.278535448719	1
6	344589	6.283069127891	0
6	346449	6.324841216935	1
6	347201	6.329428910453	0
6	349052	6.367319224589	1
6	349785	6.371915918107	0
6	351690	6.415553173941	1
6	352443	6.420203881805	0
6	354339	6.463917033149	1
6	355077	6.468603712321	0
6	356986	6.51532464451	1
6	357699	6.520290323682	0
6	359602	6.561928798208	1
6	360321	6.566651491726	0
6	362230	6.609249887123	1
6	362943	6.613747594987	0
6	364852	6.660999347985	1
6	365565	6.665884041503	0
6	367474	6.706636014906	1
6	368187	6.71141272277	0
6	370096	6.75797422355	1
6	370809	6.762471917068	0
6	372718	6.806869583824	1
6	373431	6.811169277342	0
6	375340	6.856162488073	1
6	376053	6.860615181591	0
6	377962	6.90058298033	1
6	378675	6.905314659502	0
6	380584	6.944578661222	1
6	381297	6.949076340394	0
6	383206	6.989357221823	1
6	383919	6.993782915341	0
6	385828	7.035760231398	1
6	386541	7.040608939262	0
6	388450	7.086661629004	1
6	389163	7.091582308176	0
6	391072	7.129428296752	1
6	391785	7.134240975924	0
6	393694	7.181808346062	1
6	394407	7.18699003958	0
6	396316	7.227010992951	1
6	397029	7.231571686469	0
6	398938	7.274779653142	1
6	399651	7.27936734666	0
6	401560	7.32617112878	1
6	402273	7.330902807952	0
6	404182	7.375393934335	1
6	404895	7.380350613507	0
6	406804	7.423126593355	1
6	407517	7.427570286873	0
6	409426	7.471601096363	1
6	410139	7.476143789881	0
6	412048	7.515761133287	1
6	412761	7.520609812459	0
6	414670	7.562212314416	1
6	415383	7.566403993588	0
6	417292	7.609429030885	1
6	418005	7.613881738749	0
6	419914	7.654907499444	1
6	420627	7.659531178616	0
6	422536	7.704418681116	1
6	423249	7.709240374634	0
6	425158	7.749584128387	1
6	425871	7.754432807559	0
6	427780	7.796629991851	1
6	428493	7.801028699715	0
6	430402	7.841743939208	1
6	431115	7.846646647072	0
6	432996	7.885034837466	1
6	433737	7.889433530984	0
6	435314	7.92884061637	1
6	436311	7.934896744502	0
6	438089	7.980474528708	1
6	438937	7.9860323316	0
6	440828	8.027424723305	1
6	441575	8.031940416823	0
6	443432	8.070783315413	1
6	444178	8.075502326623	0
6	446106	8.121389495596	1
6	446847	8.125779174768	0
6	448688	8.164976162169	1
6	449438	8.169455841341	0
6	451338	8.212715635916	1
6	452091	8.217609329434	0
6	454000	8.263842476213	1
6	454713	8.268628169731	0
6	456620	8.308570862709	1
6	457335	8.312726570573	0
6	459244	8.357365914843	1
6	459957	8.361890608361	0
6	461866	8.40809777193	1
6	462579	8.412991465448	0
6	464488	8.452627577134	1
6	465201	8.457215270652	0
6	467110	8.498203849155	1
6	467823	8.503133528327	0
6	469706	8.541964353103	1
6	470445	8.546885060967	0
6	472304	8.587110922265	1
6	473057	8.591995601437	0
6	474908	8.630470879847	1
6	475651	8.635166573365	0
6	476501	8.673318271869	1
6	478140	8.682805580832	0
6	479196	8.722419511827	1
6	480457	8.729432425201	0
6	481563	8.770960337672	1
6	482680	8.777854881542	0
6	484217	8.819370102529	1
6	484930	8.824011781701	0
6	486839	8.871937191199	1
6	487590	8.876948909541	0
6	489461	8.920383471004	1
6	490174	8.925133164522	0
6	492083	8.966791491339	1
6	492796	8.971586199203	0
6	494705	9.014398216663	1
6	495418	9.019300924527	0
6	497327	9.064906817654	1
6	498040	9.069476496826	0
6	499949	9.111406686914	1
6	500662	9.115850380432	0
6	502571	9.156170552998	1
6	503284	9.160875246516	0
6	505231	9.207506791287	1
6	506455	9.214571255061	0
6	508988	9.264413916299	1
6	509793	9.269363705731	0
6	510703	9.309777812391	1
6	512209	9.318658731211	0
6	513974	9.366950428562	1
6	515097	9.373998796569	0
6	516998	9.417937167983	1
6	517757	9.422875861501	0
6	519580	9.461011656876	1
6	520345	9.466150543867	0
6	522255	9.512186309562	1
6	523009	9.51681000308	0
6	524922	9.56377010355	1
6	525635	9.568978782722	0
6	527544	9.611391715919	1
6	528257	9.616195409437	0
6	530166	9.658536448905	1
6	530879	9.663313142423	0
6	532788	9.704502355431	1
6	533501	9.709063048949	0
6	535410	9.754620354091	1
6	536123	9.759406033263	0
6	538024	9.800584441883	1
6	538745	9.805433121055	0
6	540586	9.843504480548	1
6	541321	9.848236188412	0
6	542989	9.891393985172	1
6	543939	9.89715706702	0
6	545748	9.936912738895	1
6	546563	9.941918533764	0
6	547580	9.983784382449	1
6	549181	9.993217468623	0
7	0	0	0
8	0	0	0
9	0	0	0
10	0	0	0
10	3	0	1
10	1842	0.01059427236	0
10	3175	0.056492882364	1
10	4852	0.066252028846	0
10	6624	0.113405936218	1
10	7481	0.118760647022	0
10	9379	0.159932915565	1
10	10131	0.164798529605	0
10	11449	0.205286320306	1
10	12722	0.212751822377	0
10	14508	0.255561922055	1
10	15348	0.26053274562	0
10	17171	0.302246363006	1
10	17970	0.307324943543	0
10	19438	0.34721703933	1
10	20588	0.353716769863	0
10	21823	0.395159479591	1
10	23211	0.403643856712	0
10	25118	0.448628448608	1
10	25867	0.453071062648	0
10	27618	0.496224083998	1
10	28460	0.501586982682	0
10	29734	0.545435783063	1
10	31074	0.553030819585	0
10	32973	0.598388096164	1
10	33714	0.603073757724	0
10	35595	0.646414947818	1
10	36342	0.651226585618	0
10	37221	0.689872912995	1
10	38855	0.69950890345	0
10	40209	0.743269797116	1
10	41631	0.751750292461	0
10	43550	0.798280570191	1
10	44298	0.802804207991	0
10	46185	0.849413534399	1
10	46924	0.854540148439	0
10	48828	0.899549217846	1
10	49546	0.904396855646	0
10	51413	0.946398638691	1
10	52162	0.950976252731	0
10	53782	0.988854420853	1
10	54745	0.994963264395	0
10	56691	1.042107684898	1
10	57412	1.046811322698	0
10	59281	1.09062463299	1
10	60030	1.09520229455	0
10	61919	1.13756375884	1
10	62656	1.14205139664	0
10	64560	1.184024245508	1
10	65278	1.188475859548	0
10	67156	1.233293193531	1
10	67900	1.237825831331	0
10	69803	1.283326177253	1
10	70522	1.287867791293	0
10	72418	1.328251846383	1
10	73144	1.332739507943	0
10	75034	1.377548801343	1
10	75766	1.382279439143	0
10	77669	1.429349626752	1
10	78388	1.433990240792	0
10	80295	1.475159282657	1
10	81010	1.479853944217	0
10	82923	1.525802613886	1
10	83632	1.530542251686	0
10	85545	1.573863119947	1
10	86254	1.578737781507	0
10	88167	1.619275972237	1
10	88876	1.624294586277	0
10	90789	1.671558163039	1
10	91498	1.676189824599	0
10	93411	1.721328828019	1
10	94120	1.726050442059	0
10	96033	1.770675688383	1
10	96742	1.775433349943	0
10	98655	1.813067872081	1
10	99364	1.817294509881	0
10	101277	1.863013718975	1
10	101991	1.867285356775	0
10	103931	1.911063347196	1
10	104794	1.91617649944	0
10	106585	1.957757010517	1
10	107294	1.962433624557	0
10	109207	2.009725730919	1
10	109916	2.014411344959	0
10	111829	2.058129591243	1
10	112538	2.062914229043	0
10	114451	2.102532701198	1
10	115160	2.107335315238	0
10	117073	2.151955031748	1
10	117782	2.156658693308	0
10	119695	2.198732364748	1
10	120404	2.203508002548	0
10	122317	2.242429201554	1
10	123026	2.246979815594	0
10	124939	2.293608845942	1
10	125648	2.298150507502	0
10	127561	2.343440970924	1
10	128270	2.348288584964	0
10	130183	2.395643363503	1
10	130892	2.400113001303	0
10	132805	2.440793589311	1
10	133514	2.445236227111	0
10	135427	2.484601667262	1
10	136136	2.489260328822	0
10	138049	2.530326625432	1
10	138758	2.534742263232	0
10	140671	2.574698079734	1
10	141380	2.579545741294	0
10	143293	2.622064789728	1
10	144002	2.626642451288	0
10	145915	2.666745245019	1
10	146624	2.671547859059	0
10	148537	2.710858851294	1
10	149246	2.715445465334	0
10	151159	2.762110779609	1
10	151868	2.766832417409	0
10	153781	2.810690852477	1
10	154490	2.815223490277	0
10	156403	2.857470676374	1
10	157112	2.861715314174	0
10	159025	2.91048445774	1
10	160138	2.917468514892	0
10	161647	2.966918346318	1
10	162905	2.97420587613	0
10	164952	3.020972380924	1
10	166239	3.028845585823	0
10	167368	3.069273690593	1
10	168857	3.077972492082	0
10	170478	3.121063315109	1
10	171485	3.127351215398	0
10	173166	3.169201329478	1
10	174107	3.174943589075	0
10	175536	3.213006500674	1
10	176725	3.219985501399	0
10	178223	3.261367105052	1
10	179353	3.268441947855	0
10	181268	3.313075241396	1
10	182019	3.317535879196	0
10	183908	3.364496621176	1
10	184643	3.368975282736	0
10	186489	3.408464819926	1
10	187237	3.413159433966	0
10	189110	3.453180074268	1
10	189842	3.457901735828	0
10	191732	3.501728098985	1
10	192471	3.506674713025	0
10	194036	3.549899035817	1
10	195081	3.556135915918	0
10	196982	3.60216203838	1
10	197732	3.60699167618	0
10	199606	3.645609814406	1
10	200357	3.650430452206	0
10	202268	3.696125664784	1
10	202997	3.700379302584	0
10	204902	3.74530017627	1
10	205619	3.74987779031	0
10	207532	3.796120386737	1
10	208241	3.800644024537	0
10	210142	3.84216339153	1
10	210863	3.84651602933	0
10	212776	3.891547260821	1
10	213485	3.896376898621	0
10	215398	3.937686328713	1
10	216107	3.942425942753	0
10	218020	3.980421749141	1
10	218729	3.985152386941	0
10	220642	4.027905622559	1
10	221351	4.032897236599	0
10	223264	4.080141849004	1
10	223973	4.085061463044	0
10	225886	4.128836714618	1
10	226595	4.133819328658	0
10	228508	4.176872184545	1
10	229217	4.181710822345	0
10	231130	4.226610418005	1
10	231839	4.231197055805	0
10	233752	4.277602915325	1
10	234461	4.282342529365	0
10	236374	4.329822848778	1
10	237083	4.334076510338	0
10	238996	4.372626477631	1
10	239705	4.377096091671	0
10	241618	4.422960600153	1
10	242327	4.427682214193	0
10	244240	4.467433773756	1
10	244949	4.472245387796	0
10	246862	4.517093222354	1
10	247571	4.521742860154	0
10	249484	4.56900880349	1
10	250193	4.57348744129	0
10	252106	4.617723192567	1
10	252815	4.621832830367	0
10	254728	4.662727915432	1
10	255437	4.667188529472	0
10	257350	4.705738738806	1
10	258059	4.710514376606	0
10	259972	4.7521473908	1
10	260681	4.7570490286	0
10	262594	4.804562453339	1
10	263303	4.809266067379	0
10	265216	4.850876987043	1
10	265925	4.855715648603	0
10	267838	4.90176183362	1
10	268547	4.90643847142	0
10	270460	4.951780648871	1
10	271169	4.956187286671	0
10	273082	5.002934706601	1
10	273791	5.007593344401	0
10	275704	5.055470064995	1
10	277224	5.064372217685	0
10	279569	5.113261097449	1
10	280316	5.118108711489	0
10	282191	5.159316368252	1
10	282924	5.163813006052	0
10	284750	5.207895833768	1
10	285544	5.213058377067	0
10	286625	5.251697506126	1
10	288157	5.260527127166	0
10	289946	5.305786513896	1
10	290788	5.311337906745	0
10	292715	5.358235525812	1
10	293456	5.362975139852	0
10	295336	5.410171824101	1
10	296078	5.414686461901	0
10	297923	5.452807965817	1
10	298660	5.457430603617	0
10	300579	5.503666068612	1
10	301322	5.508567730172	0
10	303235	5.554814345655	1
10	303944	5.559211983455	0
10	305857	5.600696492912	1
10	306566	5.605490130712	0
10	308479	5.652769396004	1
10	309188	5.657122010044	0
10	311101	5.695398085011	1
10	311810	5.700146699051	0
10	313723	5.743138780446	1
10	314432	5.748202442006	0
10	316345	5.78837169083	1
10	317054	5.79295835239	0
10	318967	5.840172437681	1
10	319676	5.845119051721	0
10	321589	5.887938792577	1
10	322298	5.892588454137	0
10	324211	5.933221739964	1
10	324920	5.937367377764	0
10	326833	5.980086415312	1
10	327542	5.984493029352	0
10	329455	6.025075344759	1
10	330164	6.029625958799	0
10	332077	6.073161978724	1
10	332786	6.077703616524	0
10	334699	6.115623467809	1
10	335408	6.120471105609	0
10	337321	6.162432978929	1
10	338030	6.167442640489	0
10	339943	6.209557764197	1
10	340652	6.214504378237	0
10	342565	6.26037935734	1
10	343274	6.2650470189	0
10	345187	6.312606751606	1
10	345896	6.317400389406	0
10	347809	6.359598218651	1
10	348518	6.363932832691	0
10	350431	6.403464903424	1
10	351140	6.408411541224	0
10	353053	6.448762654324	1
10	353762	6.453421292124	0
10	355675	6.493129512475	1
10	356384	6.497887174035	0
10	358297	6.544817246233	1
10	359006	6.549358884033	0
10	360919	6.587137691774	1
10	361628	6.591427329574	0
10	363541	6.633643221834	1
10	364250	6.638121859634	0
10	366143	6.676971115184	1
10	366872	6.681584729224	0
10	368785	6.725300812363	1
10	369494	6.729959450163	0
10	371365	6.771161713733	1
10	372116	6.776000327773	0
10	374018	6.823147979632	1
10	374738	6.827626593672	0
10	376595	6.867451455693	1
10	377344	6.872002069733	0
10	379235	6.914384086516	1
10	379982	6.919033724316	0
10	381855	6.957811030217	1
10	382604	6.962730668017	0
10	384471	7.001757561524	1
10	385218	7.006407175564	0
10	387135	7.053291751532	1
10	387848	7.058193365572	0
10	389761	7.105223463939	1
10	390470	7.109972077979	0
10	392383	7.154401717125	1
10	393092	7.158646378685	0
10	394997	7.199411907023	1
10	395714	7.204133544823	0
10	397627	7.249033171844	1
10	398336	7.253853785884	0
10	400249	7.300420110993	1
10	400958	7.304286748793	0
10	402871	7.350111018155	1
10	403580	7.354733655955	0
10	405493	7.402298390737	1
10	406202	7.407506028537	0
10	408115	7.451257545803	1
10	408824	7.455790159843	0
10	410737	7.493721319276	1
10	411446	7.498442933316	0
10	413359	7.539889042663	1
10	414068	7.544646704223	0
10	415981	7.587343282908	1
10	416690	7.591479896948	0
10	418603	7.632143735159	1
10	419312	7.636874372959	0
10	421225	7.681033213016	1
10	421934	7.685358850816	0
10	423847	7.723404867887	1
10	424556	7.728252505687	0
10	426469	7.770136370319	1
10	427178	7.775073984359	0
10	429091	7.821170016391	1
10	429800	7.825675677951	0
10	431713	7.870049496288	1
10	432422	7.874789157848	0
10	434335	7.922468535022	1
10	435044	7.927118149062	0
10	436957	7.97320836179	1
10	437666	7.97788502335	0
10	439579	8.016780480789	1
10	440288	8.021763142349	0
10	442201	8.063254380573	1
10	442910	8.067517018373	0
10	444823	8.106561431743	1
10	445532	8.111166069543	0
10	447445	8.155219088066	1
10	448154	8.159679702106	0
10	450067	8.199546135192	1
10	450776	8.203970772992	0
10	452689	8.244651527402	1
10	453398	8.249085165202	0
10	455311	8.290938168852	1
10	456020	8.295605806652	0
10	457933	8.338956347329	1
10	458642	8.343965985129	0
10	460555	8.385124648601	1
10	461264	8.389387286401	0
10	463177	8.433275922729	1
10	463886	8.437799560529	0
10	465799	8.477614408953	1
10	466508	8.482237046753	0
10	468421	8.526816673001	1
10	469130	8.531457310801	0
10	471043	8.574811738538	1
10	471752	8.579929400098	0
10	473665	8.621640531644	1
10	474374	8.626479193204	0
10	476287	8.671980728392	1
10	477440	8.678600086016	0
10	478909	8.720679787081	1
10	480244	8.728012958361	0
10	481862	8.772964972181	1
10	483338	8.781604377896	0
10	485117	8.824958224848	1
10	486182	8.830889955155	0
10	487453	8.876164015061	1
10	488805	8.883565472359	0
10	490704	8.928581621037	1
10	491435	8.933010337976	0
10	493326	8.976492626894	1
10	494071	8.981241264694	0
10	495962	9.026284931248	1
10	496713	9.030943545288	0
10	498139	9.070092067295	1
10	499300	9.077227462722	0
10	501192	9.119743706034	1
10	501928	9.124384343834	0
10	503562	9.16249150141	1
10	504545	9.168653684918	0
10	505193	9.207382289345	1
10	506787	9.216413093955	0
10	507815	9.256778617843	1
10	508524	9.261554279403	0
10	510437	9.308109240045	1
10	511653	9.315563472589	0
10	513123	9.361615446809	1
10	513832	9.366301060849	0
10	515745	9.406835025125	1
10	516454	9.411133662925	0
10	518367	9.453245612163	1
10	519076	9.457895249963	0
10	520989	9.499827125485	1
10	521698	9.504062763285	0
10	523611	9.542412125241	1
10	524320	9.547169786801	0
10	526233	9.593058854493	1
10	526942	9.597600468533	0
10	528855	9.637263922342	1
10	529564	9.641967560142	0
10	531477	9.684693358274	1
10	532186	9.689423996074	0
10	534099	9.732068345601	1
10	534808	9.736726959641	0
10	536721	9.78321146905	1
10	537430	9.78820310685	0
10	539343	9.835510497112	1
10	540052	9.840115134912	0
10	541965	9.885232829716	1
10	542674	9.889621467516	0
10	544587	9.929544638494	1
10	545296	9.934068276294	0
10	547209	9.981516531406	1
10	548250	9.987803566469	0
11	6	0	28
12	7	0	28
13	96	0.00061818191	28
13	115	0.00075718191	28
14	458	0.002867999912	1500
14	3017	0.055758301146	1500
14	5639	0.107133175428	1500
14	8261	0.15014971944	1500
14	10883	0.201592289765	1500
14	13505	0.248841892994	1500
14	16127	0.295679375979	1500
14	18749	0.342656102517	1500
14	21371	0.392294912458	1500
14	23993	0.438134959257	1500
14	26615	0.48967236465	1500
14	29237	0.542149911961	1500
14	31859	0.590154346499	1500
14	34481	0.637273082457	1500
14	37103	0.689059085776	1500
14	39757	0.740004457403	1500
14	42411	0.786049069179	1500
14	45033	0.835587076442	1500
14	47655	0.88364146858	1500
14	50277	0.934334420813	1500
14	52899	0.982921642897	1500
14	55521	1.026508419525	1500
14	58143	1.078505262327	1500
14	60765	1.123429756944	1500
14	63387	1.167878783973	1500
14	66009	1.220031446514	1500
14	68631	1.267586416336	1500
14	71253	1.312953557924	1500
14	73875	1.362738400734	1500
14	76497	1.413211418287	1500
14	79119	1.4589802855	1500
14	81741	1.504409110673	1500
14	84363	1.548564035024	1500
14	86977	1.59122342417	1500
14	89607	1.641005461121	1500
14	92187	1.684785791102	1500
14	94816	1.735400761857	1500
14	97405	1.779290306709	1500
14	100027	1.822207231202	1500
14	102178	1.868334778677	1500
14	104609	1.915248215488	1500
14	107980	1.970422107209	1500
14	110589	2.021043291218	1500
14	113211	2.069113737638	1500
14	115889	2.120702409032	1500
14	118513	2.17274990568	1500
14	121135	2.224007969206	1500
14	123757	2.266960860649	1500
14	126378	2.311655866344	1500
14	128998	2.361164372319	1500
14	131605	2.411346740258	1500
14	134245	2.458852598509	1500
14	136858	2.501399498107	1500
14	139465	2.545389759475	1500
14	142095	2.590967745028	1500
14	144687	2.634719757697	1500
14	147323	2.681296689797	1500
14	149937	2.724051767507	1500
14	152461	2.770120342027	1500
14	155009	2.818079288807	1500
14	157556	2.864244946118	1500
14	159631	2.914389341288	1500
14	162075	2.969273059412	1500
14	164398	3.017235877407	1500
14	167020	3.067091575874	1500
14	169642	3.11572355192	1500
14	172264	3.163325059617	1500
14	174886	3.208735594383	1500
14	177508	3.256616508827	1500
14	180130	3.301142662416	1500
14	182752	3.350587684019	1500
14	185374	3.399047527771	1500
14	187996	3.445971325948	1500
14	190618	3.493783479604	1500
14	193240	3.544804972728	1500
14	195862	3.592273987942	1500
14	198484	3.635412897422	1500
14	201106	3.681214822675	1500
14	203728	3.72937217388	1500
14	206350	3.779120520882	1500
14	208972	3.826151550708	1500
14	211594	3.87038324531	1500
14	214216	3.914411553054	1500
14	216838	3.95678203562	1500
14	219460	4.006796082283	1500
14	222082	4.054858930657	1500
14	224704	4.10519801947	1500
14	227326	4.152533626745	1500
14	229948	4.196471527217	1500
14	232556	4.243040106059	1500
14	235124	4.286370461307	1500
14	237602	4.33683341852	1500
14	240382	4.384132957874	1500
14	242990	4.432967588423	1500
14	245636	4.480114130407	1500
14	248254	4.529465251481	1500
14	250863	4.579790920148	1500
14	253478	4.625851084073	1500
14	256100	4.671844378579	1500
14	258754	4.719847228114	1500
14	261344	4.76215251021	1500
14	263750	4.811678809583	1500
14	266444	4.858607518869	1500
14	269066	4.909429354968	1500
14	271762	4.959736211289	1500
14	274417	5.011161173105	1500
14	275987	5.057022586679	1500
14	278455	5.104325298617	1500
14	281077	5.151668795128	1500
14	283699	5.201439994365	1500
14	286321	5.249799254002	1500
14	288943	5.299584380743	1500
14	291565	5.344690645113	1500
14	294187	5.39668911752	1500
14	296809	5.444919827455	1500
14	299431	5.4903726048	1500
14	302053	5.537107406073	1500
14	304675	5.579959771905	1500
14	307297	5.629616489186	1500
14	309919	5.672132596653	1500
14	312541	5.718552566261	1500
14	315163	5.765072526208	1500
14	317785	5.808798735721	1500
14	320361	5.852829974711	1500
14	322993	5.901675591111	1500
14	325595	5.944463990133	1500
14	328237	5.993740249133	1500
14	330875	6.040679176944	1500
14	333483	6.087214916663	1500
14	336117	6.131382268248	1500
14	338761	6.181705402	1500
14	341383	6.233485799012	1500
14	344005	6.279300733363	1500
14	346583	6.325579501579	1500
14	349181	6.368174509233	1500
14	351826	6.416408458585	1500
14	354475	6.464700317793	1500
14	357115	6.516071929154	1500
14	359737	6.562847082852	1500
14	362359	6.610114171767	1500
14	364981	6.661836632629	1500
14	367603	6.70754529955	1500
14	370225	6.758883508194	1500
14	372847	6.807679868468	1500
14	375469	6.856873772717	1500
14	378091	6.901285264974	1500
14	380713	6.945334945866	1500
14	383335	6.990122506467	1500
14	385957	7.036489516042	1500
14	388579	7.087507913648	1500
14	391201	7.130130581396	1500
14	393823	7.182708630706	1500
14	396445	7.227830277595	1500
14	399067	7.275661937786	1500
14	401689	7.327107413424	1500
14	404311	7.376087218979	1500
14	406933	7.423783877999	1500
14	409555	7.472348381007	1500
14	412177	7.516508417931	1500
14	414799	7.56291459906	1500
14	417421	7.610077315529	1500
14	420043	7.655699784088	1500
14	422665	7.70534596576	1500
14	425287	7.750304413031	1500
14	427909	7.797305276495	1500
14	430531	7.842446223852	1500
14	433133	7.88583612211	1500
14	435670	7.930938050984	1500
14	438329	7.981813922726	1500
14	440961	8.027974007949	1500
14	443573	8.071625903403	1500
14	446242	8.12206478024	1500
14	448821	8.165651446813	1500
14	451472	8.21343592056	1500
14	454129	8.264634760857	1500
14	456751	8.309246147353	1500
14	459373	8.358158199487	1500
14	461995	8.408836056574	1500
14	464617	8.453482861778	1500
14	467239	8.499113133799	1500
14	469845	8.542846637747	1500
14	472439	8.587984206909	1500
14	475037	8.631083164491	1500
14	476787	8.674877517508	1500
14	479482	8.723854576197	1500
14	481692	8.771842622316	1500
14	484346	8.820180387173	1500
14	486968	8.872810475843	1500
14	489590	8.921076755648	1500
14	492212	8.967538775983	1500
14	494834	9.015406501307	1500
14	497456	9.065726102298	1500
14	500078	9.112198971558	1500
14	502700	9.156818837642	1500
14	505476	9.208961881701	1500
14	509187	9.265649311203	1500
14	510970	9.311289101315	1500
14	514312	9.368903835619	1500
14	517136	9.418891452627	1500
14	519739	9.461950134993	1500
14	522390	9.512951594206	1500
14	525051	9.564688388194	1500
14	527673	9.612103000563	1500
14	530295	9.659463733549	1500
14	532917	9.705366640075	1500
14	535539	9.755475638735	1500
14	538161	9.801466726527	1500
14	540715	9.844368765192	1500
14	543267	9.89292737737	1500
14	545922	9.937861068564	1500
14	547815	9.985134848025	1500
15	531	0.003338183018	1500
15	3457	0.0581771638	1500
15	6878	0.114732143242	1500
15	9512	0.160680025825	1500
15	11756	0.207055205977	1500
15	14744	0.25709821808	1500
15	17366	0.303449416003	1500
15	19805	0.349135673035	1500
15	22139	0.397040605284	1500
15	25249	0.449285558868	1500
15	27854	0.497621478902	1500
15	29972	0.546948572221	1500
15	33098	0.599216206424	1500
15	35728	0.647369058078	1500
15	37543	0.691739148056	1500
15	40701	0.746054485849	1500
15	43680	0.799009680451	1500
15	46318	0.850322644659	1500
15	48960	0.900341328106	1500
15	51546	0.947298748951	1500
15	54068	0.990653441733	1500
15	56825	1.042980795158	1500
15	59413	1.09141674325	1500
15	62052	1.1383378691	1500
15	64692	1.184825355768	1500
15	67288	1.234166303791	1500
15	69934	1.284100287513	1500
15	72550	1.329043956643	1500
15	75168	1.378412911603	1500
15	77802	1.430177737012	1500
15	80426	1.475897392917	1500
15	83048	1.526531724146	1500
15	85670	1.574862230207	1500
15	88292	1.620221082497	1500
15	90914	1.672431273299	1500
15	93536	1.722165938279	1500
15	96158	1.771386798643	1500
15	98780	1.813805982341	1500
15	101402	1.863661829235	1500
15	104056	1.911873457456	1500
15	106710	1.958378120777	1500
15	109332	2.010598841179	1500
15	111954	2.058840701503	1500
15	114576	2.103261811458	1500
15	117198	2.152756142008	1500
15	119820	2.199461475008	1500
15	122442	2.243167311814	1500
15	125064	2.294319956202	1500
15	127686	2.344215081184	1500
15	130308	2.396525473763	1500
15	132930	2.441711699571	1500
15	135552	2.485402777522	1500
15	138174	2.531217735692	1500
15	140796	2.575634189994	1500
15	143418	2.622847899988	1500
15	146040	2.667681355279	1500
15	148662	2.711614961554	1500
15	151284	2.762830889869	1500
15	153906	2.811437962737	1500
15	156528	2.858073786634	1500
15	159150	2.911330568	1500
15	161777	2.967584456578	1500
15	165271	3.022816078263	1500
15	167609	3.070565908034	1500
15	170811	3.122870368976	1500
15	173503	3.171320085295	1500
15	175942	3.215269355113	1500
15	178564	3.263428994327	1500
15	181401	3.313813351656	1500
15	184039	3.365189731436	1500
15	186622	3.409301930186	1500
15	189235	3.453981184528	1500
15	191857	3.502655209245	1500
15	194368	3.55171786987	1500
15	197115	3.60308014864	1500
15	199739	3.646608924666	1500
15	202397	3.696683775044	1500
15	205033	3.74598428653	1500
15	207657	3.796714496997	1500
15	210273	3.84273050179	1500
15	212901	3.892258371081	1500
15	215523	3.938550438973	1500
15	218145	3.981105859401	1500
15	220767	4.028679732819	1500
15	223389	4.081131959264	1500
15	226011	4.129718824878	1500
15	228633	4.177664294805	1500
15	231255	4.227438528265	1500
15	233877	4.278566025585	1500
15	236499	4.330668959038	1500
15	239121	4.373427587891	1500
15	241743	4.423824710413	1500
15	244365	4.468189884016	1500
15	246987	4.517912332614	1500
15	249609	4.56973791375	1500
15	252231	4.618272302827	1500
15	254853	4.663484025692	1500
15	257475	4.706566849066	1500
15	260097	4.75308350106	1500
15	262719	4.805237563599	1500
15	265341	4.851732097303	1500
15	267963	4.90258994388	1500
15	270585	4.952617759131	1500
15	273207	5.003870816861	1500
15	275939	5.056814459899	1500
15	279700	5.114251207709	1500
15	282316	5.160243478512	1500
15	284938	5.209155849527	1500
15	286943	5.253580656834	1500
15	290145	5.307029308533	1500
15	292848	5.359144636072	1500
15	295467	5.410810934361	1500
15	298048	5.453573076077	1500
15	300712	5.504503178872	1500
15	303360	5.555498455915	1500
15	305982	5.601587603172	1500
15	308604	5.653525506264	1500
15	311226	5.696298195271	1500
15	313848	5.744119890706	1500
15	316470	5.78920880109	1500
15	319092	5.841045547941	1500
15	321714	5.888730902837	1500
15	324336	5.933986850224	1500
15	326958	5.980833525572	1500
15	329580	6.025957455019	1500
15	332202	6.073774088984	1500
15	334824	6.116298578069	1500
15	337446	6.163153089189	1500
15	340068	6.210394874457	1500
15	342690	6.2611264676	1500
15	345312	6.313452861866	1500
15	347934	6.360372328911	1500
15	350556	6.404320013684	1500
15	353178	6.449599764584	1500
15	355800	6.493876622735	1500
15	358422	6.545681356493	1500
15	361044	6.587776802034	1500
15	363666	6.634498332094	1500
15	366275	6.677790225444	1500
15	368910	6.726101922623	1500
15	371498	6.772007823993	1500
15	374148	6.823814089892	1500
15	376726	6.868171565953	1500
15	379368	6.915167196776	1500
15	381988	6.958666140477	1500
15	384602	7.002549671784	1500
15	387264	7.054209861792	1500
15	389886	7.106195574199	1500
15	392508	7.154977827385	1500
15	395127	7.200258017283	1500
15	397752	7.249798282104	1500
15	400374	7.301059221253	1500
15	402996	7.350867128415	1500
15	405618	7.403045500997	1500
15	408240	7.451842656063	1500
15	410862	7.494369429536	1500
15	413484	7.540663152923	1500
15	416106	7.588099393168	1500
15	418728	7.632935845419	1500
15	421350	7.681600323276	1500
15	423972	7.724115978147	1500
15	426594	7.770820480579	1500
15	429216	7.821971126651	1500
15	431838	7.870751606548	1500
15	434460	7.923161645282	1500
15	437082	7.97404547205	1500
15	439704	8.017572591049	1500
15	442326	8.063947490833	1500
15	444948	8.107236542003	1500
15	447570	8.155975198326	1500
15	450192	8.200257245452	1500
15	452814	8.245488637662	1500
15	455436	8.291874279112	1500
15	458058	8.339730457589	1500
15	460680	8.385835758861	1500
15	463302	8.433924032989	1500
15	465924	8.478415519213	1500
15	468546	8.527509783261	1500
15	471168	8.575594848798	1500
15	473790	8.622414641904	1500
15	476412	8.672664838652	1500
15	479034	8.721426897341	1500
15	482165	8.774730769614	1500
15	485441	8.826750872673	1500
15	487808	8.878179391637	1500
15	490829	8.929404786676	1500
15	493455	8.977221737154	1500
15	496093	9.026915041508	1500
15	498512	9.072358564038	1500
15	501317	9.120418816294	1500
15	503828	9.164055578676	1500
15	505428	9.208753754921	1500
15	507940	9.257390728103	1500
15	510562	9.308820350305	1500
15	513248	9.362479557069	1500
15	515870	9.407654135385	1500
15	518492	9.454127722423	1500
15	521114	9.500592235745	1500
15	523736	9.543195235501	1500
15	526358	9.593688964753	1500
15	528980	9.638083032602	1500
15	531602	9.685485468534	1500
15	534224	9.732932455861	1500
15	536846	9.78412057931	1500
15	539468	9.836338607372	1500
15	542090	9.885907939976	1500
15	544712	9.930228748754	1500
15	547334	9.982227641666	1500
16	786	0.004812819396	536
16	859	0.005141890068	536
16	1076	0.006462484598	536
16	1116	0.00664655527	536
16	1366	0.0080101498	428
16	1410	0.008325220472	428
16	3163	0.056470713766	536
16	3385	0.05777010867	536
16	3712	0.059616800178	428
16	3756	0.05980087085	536
16	4404	0.063419262512	536
16	4698	0.065305887216	428
16	5785	0.108151602394	536
16	5930	0.109241887038	536
16	6075	0.110036171682	428
16	7028	0.115741284872	536
16	7177	0.116732395132	536
16	7331	0.117850505392	428
16	8407	0.150997146406	536
16	8552	0.15191643105	536
16	8697	0.152881715694	428
16	9671	0.161698167455	536
16	9825	0.162842277715	536
16	9978	0.163843387975	428
16	11029	0.202538702385	536
16	11174	0.203574987029	536
16	11319	0.204504271673	428
16	12089	0.209044880461	536
16	12380	0.210749499815	536
16	12572	0.211868680747	428
16	13651	0.249869305614	536
16	13796	0.250887590258	536
16	13941	0.251879874902	428
16	14894	0.25799038347	536
16	15046	0.25890049373	536
16	15198	0.25975760399	428
16	16273	0.296724802945	536
16	16418	0.297590087589	536
16	16563	0.298573372233	428
16	17516	0.304422581393	536
16	17665	0.305368691653	536
16	17819	0.306414801913	428
16	18895	0.343602529483	536
16	19040	0.344593814127	536
16	19185	0.345712098771	428
16	20068	0.350641123069	536
16	20246	0.351597447301	536
16	20436	0.352806628233	428
16	21517	0.393385325078	536
16	21662	0.394304609722	536
16	21807	0.395116894366	428
16	22577	0.399567820364	536
16	22868	0.40131751039	536
16	23058	0.402580691322	428
16	24139	0.439054386223	536
16	24284	0.439937670867	536
16	24429	0.440803955511	428
16	25408	0.450420700498	536
16	25564	0.451393810758	536
16	25716	0.452277921018	428
16	26761	0.490546791616	536
16	26906	0.49166407626	536
16	27051	0.492791360904	428
16	28004	0.498558620532	536
16	28155	0.499594730792	536
16	28310	0.500685841052	428
16	29383	0.543087338927	536
16	29528	0.544177623571	536
16	29673	0.545070908215	428
16	30260	0.548523236227	536
16	30627	0.550505002275	536
16	30924	0.552228654195	428
16	32005	0.591136773465	536
16	32150	0.591993058109	536
16	32295	0.592886342753	428
16	33256	0.600225371814	536
16	33410	0.601333482074	536
16	33562	0.602190592334	428
16	34627	0.638183509423	536
16	34772	0.639372794067	536
16	34917	0.640284078711	428
16	35886	0.648387223468	536
16	36038	0.649405333728	536
16	36192	0.650415443988	428
16	37254	0.690077498396	536
16	37471	0.691305092926	536
16	37798	0.693299527418	536
16	37871	0.69372359809	428
16	38133	0.695354222794	536
16	38560	0.697866382744	428
16	39903	0.740968870023	536
16	40048	0.741978154667	536
16	40193	0.743213439311	428
16	41065	0.748215421217	536
16	41325	0.749686040571	536
16	41479	0.750777150831	428
16	42557	0.787121496145	536
16	42702	0.787914780789	536
16	42847	0.789042065433	428
16	43839	0.800054845841	536
16	43996	0.801279956101	536
16	44148	0.802047066361	428
16	45179	0.836551489062	536
16	45324	0.837596773706	536
16	45469	0.83852605835	428
16	46478	0.851376786289	536
16	46633	0.852538896549	536
16	46780	0.853594006809	428
16	47801	0.8843628812	536
16	47946	0.885228165844	536
16	48091	0.886229450488	428
16	49112	0.901458469736	536
16	49257	0.902656579996	536
16	49402	0.903450690256	428
16	50423	0.935397847779	536
16	50568	0.936452132423	536
16	50713	0.937381417067	428
16	51704	0.948280890581	536
16	51855	0.949191000841	536
16	52010	0.950102111101	428
16	53045	0.984030069863	536
16	53190	0.984940354507	536
16	53335	0.985986639151	428
16	54288	0.991988878485	536
16	54440	0.992970988745	536
16	54593	0.994044099005	428
16	55667	1.027274846491	536
16	55812	1.028392131135	536
16	55957	1.029213415779	428
16	56978	1.044025936788	536
16	57123	1.044882047048	536
16	57268	1.045811157308	428
16	58289	1.079424674947	536
16	58434	1.080442959591	536
16	58579	1.081381244235	428
16	59572	1.09239890864	536
16	59723	1.0931830189	536
16	59878	1.09419312916	428
16	60911	1.12437618391	536
16	61056	1.125367468554	536
16	61201	1.126314753198	428
16	62208	1.13913103449	536
16	62363	1.14026614475	536
16	62512	1.14115025501	428
16	63533	1.168717210939	536
16	63678	1.169843495583	536
16	63823	1.170754780227	428
16	64844	1.185645497398	536
16	64989	1.186672607658	536
16	65134	1.187529717918	428
16	66155	1.220995859134	536
16	66300	1.222005143778	536
16	66445	1.222916428422	428
16	67448	1.235139469181	536
16	67603	1.236103579441	536
16	67755	1.236987689701	428
16	68777	1.268622828956	536
16	68922	1.2694881136	536
16	69067	1.270579398244	428
16	70088	1.284965429143	536
16	70233	1.285974539403	536
16	70378	1.287092649663	428
16	71399	1.313998970544	536
16	71544	1.314999255188	536
16	71689	1.316045539832	428
16	72708	1.330017122033	536
16	72855	1.330981232293	536
16	73000	1.331973342553	428
16	74021	1.3638828277	536
16	74166	1.364991112344	536
16	74311	1.365965396988	428
16	75326	1.379422076993	536
16	75477	1.380656187253	536
16	75622	1.381432297513	428
16	76643	1.414202830907	536
16	76788	1.415320115551	536
16	76933	1.416375400195	428
16	77954	1.431249878642	536
16	78099	1.432177988902	536
16	78244	1.433107099162	428
16	79265	1.45976469812	536
16	79410	1.460881982764	536
16	79555	1.461865267408	428
16	80576	1.476834558307	536
16	80721	1.477861668567	536
16	80866	1.478817778827	428
16	81887	1.505409523293	536
16	82032	1.506310807937	536
16	82177	1.507483092581	428
16	83198	1.527621889536	536
16	83343	1.528576999796	536
16	83488	1.529515110056	428
16	84509	1.549546447644	536
16	84654	1.550555732288	536
16	84799	1.551674016932	428
16	85820	1.575844395597	536
16	85965	1.576772505857	536
16	86110	1.577818616117	428
16	87131	1.59219683679	536
16	87276	1.593305121434	536
16	87421	1.594333406078	428
16	88442	1.621221224127	536
16	88587	1.622158334387	536
16	88732	1.623159444647	428
16	89753	1.641915873741	536
16	89898	1.642934158385	536
16	90043	1.643872443029	428
16	91064	1.673359438689	536
16	91209	1.674341548949	536
16	91354	1.675234659209	428
16	92341	1.685633203722	536
16	92496	1.686624488366	536
16	92651	1.68767977301	428
16	93686	1.723157079909	536
16	93831	1.724193190169	536
16	93976	1.725185300429	428
16	94969	1.736203174477	536
16	95124	1.737221459121	536
16	95278	1.738123743765	428
16	96308	1.772485964033	536
16	96453	1.773324074293	536
16	96598	1.774397184553	428
16	97551	1.780308733675	536
16	97702	1.781273018319	536
16	97853	1.782139302963	428
16	98930	1.814617123971	536
16	99075	1.815572234231	536
16	99220	1.816330344491	428
16	100173	1.823126643822	536
16	100330	1.824279928466	536
16	100482	1.82517321311	428
16	101552	1.864508994625	536
16	101697	1.865437104885	536
16	101842	1.866366215145	428
16	102502	1.870039545703	536
16	102826	1.872038196141	536
16	103124	1.873914591045	428
16	104206	1.912873599086	536
16	104356	1.913927709346	536
16	104650	1.91541035781	428
16	105154	1.918098197076	536
16	105513	1.920223059038	536
16	105775	1.921775540442	428
16	106860	1.959306262407	536
16	107005	1.960405372667	536
16	107150	1.961370482927	428
16	108133	1.971332519829	536
16	108286	1.972224804473	536
16	108438	1.973163089117	428
16	109482	2.011517982809	536
16	109627	2.012617093069	536
16	109772	2.013411203329	428
16	110743	2.021980703838	536
16	110896	2.022944988482	536
16	111050	2.023883273126	428
16	112104	2.059642866893	536
16	112249	2.060876977153	536
16	112394	2.061914087413	428
16	113366	2.070213164604	536
16	113518	2.071303449248	536
16	113671	2.072259733892	428
16	114726	2.104351953088	536
16	114871	2.105289063348	536
16	115016	2.106281173608	428
16	116037	2.121675835998	536
16	116182	2.122712120642	536
16	116327	2.123641405286	428
16	117348	2.153720307398	536
16	117493	2.154801417658	536
16	117638	2.155730527918	428
16	118659	2.1738493183	536
16	118804	2.174669602944	536
16	118949	2.175652887588	428
16	119970	2.200488640398	536
16	120115	2.201596750658	536
16	120260	2.202453860918	428
16	121281	2.225071381826	536
16	121426	2.22605366647	536
16	121571	2.226991951114	428
16	122592	2.244095453444	536
16	122737	2.245149563704	536
16	122882	2.246078673964	428
16	123903	2.267826287615	536
16	124048	2.268700572259	536
16	124193	2.269890856903	428
16	125214	2.295230121592	536
16	125359	2.296329231852	536
16	125504	2.297186342112	428
16	126525	2.312422278964	536
16	126670	2.313224563608	536
16	126815	2.314243848252	428
16	127836	2.345242222814	536
16	127981	2.346152333074	536
16	128126	2.347252443334	428
16	129147	2.362101784939	536
16	129292	2.363156069583	536
16	129437	2.364058354227	428
16	130458	2.397426615393	536
16	130603	2.398399725653	536
16	130748	2.399256835913	428
16	131760	2.412131167224	536
16	131914	2.413086451868	536
16	132059	2.413871736512	428
16	133080	2.442603864961	536
16	133225	2.443585975221	536
16	133370	2.444470085481	428
16	134391	2.459691025475	536
16	134536	2.460682310119	536
16	134681	2.461692594763	428
16	135702	2.486339942912	536
16	135847	2.487367053172	536
16	135992	2.488422163432	428
16	137013	2.502363925073	536
16	137158	2.503562209717	536
16	137303	2.504608494361	428
16	138324	2.532082877322	536
16	138469	2.533082987582	536
16	138614	2.533859097842	428
16	139621	2.546435172095	536
16	139774	2.547408456739	536
16	139925	2.548589741383	428
16	140946	2.576643355384	536
16	141091	2.577589465644	536
16	141236	2.578689575904	428
16	142249	2.591914157648	536
16	142402	2.592851442292	536
16	142547	2.593924726936	428
16	143568	2.623785065378	536
16	143713	2.624857175638	536
16	143858	2.625750285898	428
16	144842	2.635756170317	536
16	144996	2.636783454961	536
16	145149	2.637820739605	428
16	146190	2.668618496909	536
16	146335	2.669555607169	536
16	146480	2.670673717429	428
16	147479	2.682306116763	536
16	147635	2.683351401407	536
16	147787	2.684235686051	428
16	148812	2.712489103184	536
16	148957	2.713390213444	536
16	149102	2.714373323704	428
16	150091	2.725097180127	536
16	150246	2.726151464771	536
16	150400	2.727098749415	428
16	151434	2.763723031499	536
16	151579	2.764831141759	536
16	151724	2.765940252019	428
16	152677	2.771590864907	536
16	152825	2.772384149551	536
16	152979	2.773448434195	428
16	154056	2.812483104367	536
16	154201	2.813591214627	536
16	154346	2.814340324887	428
16	155299	2.819694067639	536
16	155445	2.820775352283	536
16	155597	2.821614636927	428
16	156678	2.858929952024	536
16	156823	2.859804062284	536
16	156968	2.860742172544	428
16	157810	2.865661753642	536
16	158066	2.867150348172	536
16	158215	2.867863632816	428
16	159305	2.91222273339	536
16	159522	2.913621128294	536
16	159849	2.91569681832	536
16	159922	2.916129888992	428
16	160217	2.917887570022	536
16	160650	2.920442161686	428
16	162032	2.96910991709	536
16	162326	2.970756806742	536
16	162399	2.971256877414	536
16	162616	2.972564426096	536
16	162689	2.973006496768	428
16	162984	2.97463893126	428
16	164544	3.018218304373	536
16	164689	3.019236589017	536
16	164834	3.020318873661	428
16	165676	3.025184899441	536
16	165936	3.026781310173	536
16	166091	3.027998420433	428
16	167166	3.068001988494	536
16	167311	3.068894273138	536
16	167533	3.070140852904	428
16	167861	3.072229415458	536
16	168196	3.074021081724	536
16	168666	3.07679125602	428
16	169788	3.116705978886	536
16	169933	3.11776026353	536
16	170078	3.118734548174	428
16	171031	3.124340829488	536
16	171180	3.125367939748	536
16	171332	3.126270050008	428
16	172410	3.164226486583	536
16	172555	3.165415771227	536
16	172700	3.166390055871	428
16	173653	3.172149226925	536
16	173804	3.173167337185	536
16	173957	3.174024447445	428
16	175032	3.209736021349	536
16	175177	3.210691305993	536
16	175322	3.211746590637	428
16	176164	3.216549653915	536
16	176420	3.218146249509	536
16	176575	3.219165359769	428
16	177654	3.257499935793	536
16	177799	3.258536220437	536
16	177944	3.259708505081	428
16	178753	3.264493206629	536
16	179048	3.266476672205	536
16	179203	3.267585782465	428
16	180276	3.302107075036	536
16	180421	3.30296335968	536
16	180566	3.303748644324	428
16	181558	3.314615517046	536
16	181712	3.315498627306	536
16	181867	3.316643737566	428
16	182898	3.351372096639	536
16	183043	3.352426381283	536
16	183188	3.353427665927	428
16	184196	3.365982896826	536
16	184350	3.367010007086	536
16	184499	3.368011117346	428
16	185520	3.399975940391	536
16	185665	3.401030225035	536
16	185810	3.402166509679	428
16	186781	3.410374071816	536
16	186932	3.411257182076	536
16	187084	3.412222292336	428
16	188142	3.446917738568	536
16	188287	3.447882023212	536
16	188432	3.448631307856	428
16	189385	3.454873349918	536
16	189536	3.455954460178	536
16	189689	3.456865570438	428
16	190764	3.49478390657	536
16	190909	3.495739191214	536
16	191054	3.496686475858	428
16	192011	3.503457350875	536
16	192165	3.504529461135	536
16	192319	3.505620571395	428
16	193386	3.545742399694	536
16	193531	3.546742684338	536
16	193676	3.547797968982	428
16	194592	3.553025459336	536
16	194776	3.554233640268	536
16	194930	3.555288750528	428
16	196008	3.593157400562	536
16	196153	3.594157685206	536
16	196298	3.59504196985	428
16	197271	3.60391831403	536
16	197424	3.60476542429	536
16	197577	3.60587453455	428
16	198630	3.636431310042	536
16	198775	3.637278594686	536
16	198920	3.63835187933	428
16	199897	3.647546066296	536
16	200049	3.648366176556	536
16	200204	3.649421286816	428
16	201252	3.682098235295	536
16	201397	3.683215519939	536
16	201542	3.683991804583	428
16	202554	3.697521940434	536
16	202708	3.698450050694	536
16	202853	3.699451160954	428
16	203874	3.730354600846	536
16	204019	3.73131888549	536
16	204164	3.732284170134	428
16	205185	3.74688542816	536
16	205330	3.74789453842	536
16	205475	3.74904864868	428
16	206496	3.779868947848	536
16	206641	3.780950232492	536
16	206786	3.781942517136	428
16	207807	3.797768638627	536
16	207952	3.798831748887	536
16	208097	3.799742859147	428
16	209118	3.827178963328	536
16	209263	3.828125247972	536
16	209408	3.829162532616	428
16	210429	3.84370366718	536
16	210574	3.84459577744	536
16	210719	3.8455518877	428
16	211740	3.871167672276	536
16	211885	3.87202395692	536
16	212030	3.873115241564	428
16	213051	3.893213512711	536
16	213196	3.894321622971	536
16	213341	3.895277733231	428
16	214362	3.91542998002	536
16	214507	3.916610264664	536
16	214652	3.917620549308	428
16	215673	3.939532580603	536
16	215818	3.940730690863	536
16	215963	3.941650801123	428
16	216984	3.957764462586	536
16	217129	3.95884574723	536
16	217274	3.959775031874	428
16	218295	3.982205001031	536
16	218440	3.983259111291	536
16	218585	3.984143221551	428
16	219606	4.007634494903	536
16	219751	4.008643779547	536
16	219896	4.009645064191	428
16	220917	4.029760874449	536
16	221062	4.030751984709	536
16	221207	4.031807094969	428
16	222228	4.055922357623	536
16	222373	4.056994642267	536
16	222518	4.057959926911	428
16	223539	4.082105100894	536
16	223684	4.083087211154	536
16	223829	4.084106321414	428
16	224850	4.106297446436	536
16	224995	4.10736073108	536
16	225140	4.108506015724	428
16	226161	4.130718966508	536
16	226306	4.131854076768	536
16	226451	4.132891187028	428
16	227472	4.153543053711	536
16	227617	4.154687338355	536
16	227762	4.155751622999	428
16	228783	4.178610460195	536
16	228928	4.179727570455	536
16	229073	4.180692680715	428
16	230094	4.197480954183	536
16	230239	4.198355238827	536
16	230384	4.199338523471	428
16	231405	4.228384693655	536
16	231550	4.229429803915	536
16	231695	4.230295914175	428
16	232710	4.243959518679	536
16	232861	4.244923803323	536
16	233006	4.245943087967	428
16	234027	4.279440167215	536
16	234172	4.280359277475	536
16	234317	4.281369387735	428
16	235270	4.287352888273	536
16	235421	4.288380172917	536
16	235572	4.289111457561	428
16	236649	4.331615124428	536
16	236794	4.332408234688	536
16	236939	4.333265344948	428
16	237855	4.33824016585	536
16	238037	4.339457521166	536
16	238186	4.34035980581	428
16	239271	4.374328729521	536
16	239416	4.375238839781	536
16	239561	4.376338950041	428
16	240536	4.385115370494	536
16	240689	4.386133655138	536
16	240843	4.387143939782	428
16	241893	4.424743852043	536
16	242038	4.425734962303	536
16	242183	4.426664072563	428
16	243144	4.433995015389	536
16	243297	4.434950300033	536
16	243450	4.435915584677	428
16	244515	4.469082025646	536
16	244660	4.470046135906	536
16	244805	4.471164246166	428
16	245788	4.481159543027	536
16	245942	4.482276827671	536
16	246096	4.483116112315	428
16	247137	4.518786474244	536
16	247282	4.519768584504	536
16	247427	4.520751694764	428
16	248409	4.530555678447	536
16	248563	4.531528963091	536
16	248713	4.532323247735	428
16	249759	4.57068405538	536
16	249904	4.57176516564	536
16	250049	4.5727032759	428
16	251018	4.580746332768	536
16	251169	4.581746617412	536
16	251321	4.582504902056	428
16	252381	4.619137468217	536
16	252526	4.620119578477	536
16	252671	4.620877688737	428
16	253624	4.626734511039	536
16	253769	4.627707795683	536
16	253924	4.628700080327	428
16	255003	4.664556167322	536
16	255148	4.665565277582	536
16	255293	4.666458387842	428
16	256246	4.672754791199	536
16	256401	4.673872075843	536
16	256555	4.675044360487	428
16	257625	4.707567014456	536
16	257770	4.708549124716	536
16	257915	4.709604234976	428
16	258908	4.720586640734	536
16	259060	4.721451925378	536
16	259214	4.722444210022	428
16	260247	4.75410166645	536
16	260392	4.75511077671	536
16	260537	4.75604888697	428
16	261497	4.763134937176	536
16	261651	4.76422522182	536
16	261804	4.765271506464	428
16	262869	4.806129705229	536
16	263014	4.807183815489	536
16	263159	4.808274925749	428
16	263968	4.812951517325	536
16	264261	4.814898982901	536
16	264414	4.815837267545	428
16	265491	4.852516262693	536
16	265636	4.853624372953	536
16	265781	4.854661483213	428
16	266697	4.860050266199	536
16	266882	4.861276621515	536
16	267034	4.862079906159	428
16	268113	4.90356308551	536
16	268258	4.90450019577	536
16	268403	4.90548330603	428
16	269319	4.910989102298	536
16	269503	4.911954457614	536
16	269655	4.912874742258	428
16	270735	4.953482900761	536
16	270880	4.954456011021	536
16	271025	4.955367121281	428
16	271978	4.960963904685	536
16	272123	4.961766189329	536
16	272275	4.962632473973	428
16	273357	5.004699958491	536
16	273502	5.005745068751	536
16	273647	5.006629179011	428
16	274600	5.012234670743	536
16	274746	5.013000955387	536
16	274900	5.014200240031	428
16	276205	5.058223109559	536
16	276311	5.058853266731	536
16	276528	5.060272590963	536
16	276601	5.060763661635	536
16	276818	5.062099256165	428
16	276895	5.062532326837	428
16	278601	5.105217711237	536
16	278746	5.106361995881	536
16	278891	5.107273280525	428
16	279858	5.115080349339	536
16	280011	5.116170459599	536
16	280164	5.117045569859	428
16	281223	5.152615207748	536
16	281368	5.153660492392	536
16	281513	5.154904777036	428
16	282470	5.161234620142	536
16	282621	5.162063730402	536
16	282773	5.162875840662	428
16	283845	5.202386406985	536
16	283990	5.203224691629	536
16	284135	5.204297976273	428
16	285088	5.210038991157	536
16	285237	5.211129101417	536
16	285391	5.212238211677	428
16	286467	5.250763666622	536
16	286612	5.251637951266	536
16	286834	5.253001531032	428
16	287272	5.255528735502	536
16	287570	5.257178211556	536
16	287967	5.259408891104	428
16	289089	5.300566793363	536
16	289234	5.301360078007	536
16	289379	5.302280362651	428
16	290332	5.308093544595	536
16	290481	5.309264654855	536
16	290635	5.310247765115	428
16	291711	5.345538072079	536
16	291856	5.346592356723	536
16	292001	5.347584641367	428
16	293008	5.360180777702	536
16	293162	5.361189887962	536
16	293312	5.362145998222	428
16	294333	5.39771653014	536
16	294478	5.398617814784	536
16	294623	5.399610099428	428
16	295628	5.411829099751	536
16	295781	5.412739210011	536
16	295934	5.413767320271	428
16	296955	5.445866240075	536
16	297100	5.446704524719	536
16	297245	5.447894809363	428
16	298200	5.454384217707	536
16	298355	5.455519327967	536
16	298508	5.456502438227	428
16	299577	5.491247031766	536
16	299722	5.49225631641	536
16	299867	5.493194601054	428
16	300870	5.505476344262	536
16	301027	5.506656454522	536
16	301178	5.507594564782	428
16	302199	5.538008833039	536
16	302344	5.539099117683	536
16	302489	5.540019402327	428
16	303510	5.556399597545	536
16	303655	5.557381707805	536
16	303800	5.558265818065	428
16	304821	5.580897184525	536
16	304966	5.581969469169	536
16	305111	5.583024753813	428
16	306132	5.602596768562	536
16	306277	5.603632878822	536
16	306422	5.604633989082	428
16	307443	5.630616901806	536
16	307588	5.63173418645	536
16	307733	5.632618471094	428
16	308754	5.654408647894	536
16	308899	5.655246758154	536
16	309044	5.656229868414	428
16	310065	5.672962023619	536
16	310210	5.673872308263	536
16	310355	5.674801592907	428
16	311376	5.697253336901	536
16	311521	5.698136447161	536
16	311666	5.699272557421	428
16	312687	5.719480993227	536
16	312832	5.720715277871	536
16	312977	5.721779562515	428
16	313998	5.745138056096	536
16	314143	5.746309166356	536
16	314288	5.747238276616	428
16	315309	5.766099953174	536
16	315454	5.767136237818	536
16	315599	5.768263522462	428
16	316620	5.79007396648	536
16	316765	5.79117307674	536
16	316910	5.792066187	428
16	317931	5.809826162687	536
16	318076	5.810682447331	536
16	318221	5.811719731975	428
16	319242	5.841919689571	536
16	319387	5.843081799831	536
16	319532	5.844208910091	428
16	320513	5.853848387331	536
16	320667	5.854875671975	536
16	320819	5.855822956619	428
16	321864	5.889524068227	536
16	322009	5.890569178487	536
16	322154	5.891507288747	428
16	323146	5.902640003731	536
16	323300	5.903613288375	536
16	323454	5.904569573019	428
16	324486	5.934834015614	536
16	324631	5.935780125874	536
16	324776	5.936673236134	428
16	325749	5.945410417099	536
16	325904	5.946545701743	536
16	326059	5.947699986387	428
16	327108	5.981563667202	536
16	327253	5.982563777462	536
16	327398	5.983546887722	428
16	328391	5.994668676099	536
16	328544	5.995524960743	536
16	328699	5.996499245387	428
16	329730	6.026948596649	536
16	329875	6.027921706909	536
16	330020	6.028814817169	428
16	331030	6.041661589564	536
16	331183	6.042598874208	536
16	331331	6.043411158852	428
16	332352	6.074675254374	536
16	332497	6.075684364634	536
16	332642	6.076631474894	428
16	333639	6.088296343629	536
16	333794	6.089323628273	536
16	333947	6.090234912917	428
16	334974	6.117442743459	536
16	335119	6.118406853719	536
16	335264	6.119488963979	428
16	336271	6.132265680868	536
16	336426	6.133292965512	536
16	336575	6.134177250156	428
16	337596	6.164216254579	536
16	337741	6.165207364839	536
16	337886	6.166433475099	428
16	338907	6.182507828966	536
16	339052	6.18358911361	536
16	339197	6.184671398254	428
16	340218	6.211458016087	536
16	340363	6.212485126347	536
16	340508	6.213459236607	428
16	341529	6.234315225978	536
16	341674	6.235333510622	536
16	341819	6.236055795266	428
16	342840	6.26200963299	536
16	342985	6.26305474325	536
16	343130	6.26414585351	428
16	344151	6.280364145983	536
16	344296	6.281184430627	536
16	344441	6.282041715271	428
16	345462	6.314210027256	536
16	345607	6.315399137516	536
16	345752	6.316472247776	428
16	346737	6.326624928545	536
16	346891	6.327670213189	536
16	347045	6.328500497833	428
16	348084	6.361183470541	536
16	348229	6.362210580801	536
16	348374	6.363148691061	428
16	349327	6.368985936199	536
16	349476	6.369995220843	536
16	349630	6.371005505487	428
16	350706	6.405293155314	536
16	350851	6.406392265574	536
16	350996	6.407438375834	428
16	351979	6.417237885551	536
16	352132	6.418283170195	536
16	352285	6.419239454839	428
16	353328	6.450518906214	536
16	353473	6.451438016474	536
16	353618	6.452439126734	428
16	354629	6.465610730413	536
16	354782	6.466566015057	536
16	354929	6.467621299701	428
16	355950	6.494822788125	536
16	356095	6.495957898385	536
16	356240	6.496959008645	428
16	357261	6.516919341774	536
16	357406	6.518198626418	536
16	357551	6.519307911062	428
16	358572	6.546645521883	536
16	358717	6.547366632143	536
16	358862	6.548529742403	428
16	359883	6.563847495472	536
16	360028	6.564964780116	536
16	360173	6.56583106476	428
16	361194	6.588542943664	536
16	361339	6.589579053924	536
16	361484	6.590589164184	428
16	362505	6.611015598733	536
16	362650	6.611853883377	536
16	362795	6.612909168021	428
16	363816	6.635381473724	536
16	363961	6.636210583984	536
16	364106	6.637175694244	428
16	365127	6.662837045249	536
16	365272	6.663954329893	536
16	365417	6.664928614537	428
16	366432	6.678628367074	536
16	366583	6.679835477334	536
16	366728	6.680737587594	428
16	367749	6.708527726516	536
16	367894	6.70951901116	536
16	368039	6.710457295804	428
16	369060	6.726958064253	536
16	369205	6.727913174513	536
16	369350	6.729058284773	428
16	370371	6.75978493516	536
16	370516	6.760605219804	536
16	370661	6.761579504448	428
16	371658	6.772980965623	536
16	371811	6.773981075883	536
16	371965	6.774964186143	428
16	372993	6.808473281088	536
16	373138	6.809248565732	536
16	373283	6.810150850376	428
16	374304	6.824706231522	536
16	374449	6.825814341782	536
16	374594	6.826770452042	428
16	375615	6.857667185337	536
16	375760	6.858658469981	536
16	375905	6.859722754625	428
16	376884	6.869234707583	536
16	377037	6.870027817843	536
16	377191	6.871109928103	428
16	378237	6.902231677594	536
16	378382	6.903393962238	536
16	378527	6.904386246882	428
16	379526	6.916068362166	536
16	379680	6.917086472426	536
16	379834	6.918195582686	428
16	380859	6.946191358486	536
16	381004	6.94719164313	536
16	381149	6.948039927774	428
16	382146	6.959675305867	536
16	382299	6.960594416127	536
16	382454	6.961613526387	428
16	383481	6.990969919087	536
16	383626	6.991898203731	536
16	383771	6.992809488375	428
16	384760	7.003495813414	536
16	384915	7.004639923674	536
16	385067	7.005488033934	428
16	386103	7.037615943008	536
16	386248	7.038508227652	536
16	386393	7.039473512296	428
16	387414	7.055084003422	536
16	387559	7.056228113682	536
16	387704	7.057274223942	428
16	388725	7.088508326268	536
16	388870	7.089625610912	536
16	389015	7.090608895556	428
16	390036	7.107078715829	536
16	390181	7.108177826089	536
16	390326	7.108998936349	428
16	391347	7.131121994016	536
16	391492	7.13217627866	536
16	391637	7.133204563304	428
16	392658	7.155833992775	536
16	392803	7.156816103035	536
16	392948	7.157763213295	428
16	393969	7.183835057672	536
16	394114	7.184808342316	536
16	394259	7.18591762696	428
16	395280	7.201249158913	536
16	395425	7.202024269173	536
16	395570	7.203124379433	428
16	396591	7.228704690215	536
16	396736	7.229569974859	536
16	396881	7.230643259503	428
16	397902	7.250780423734	536
16	398047	7.251771533994	536
16	398192	7.252943644254	428
16	399213	7.276581364752	536
16	399358	7.277464649396	536
16	399503	7.27855593404	428
16	400524	7.301843386643	536
16	400669	7.302681496903	536
16	400814	7.303556607163	428
16	401835	7.328053826044	536
16	401980	7.328865110688	536
16	402125	7.329893395332	428
16	403146	7.351867270045	536
16	403291	7.352660380305	536
16	403436	7.353832490565	428
16	404457	7.377114631599	536
16	404602	7.378249916243	536
16	404747	7.379359200887	428
16	405768	7.404027642627	536
16	405913	7.405225752887	536
16	406058	7.406406863147	428
16	407079	7.424496290619	536
16	407224	7.425415575263	536
16	407369	7.426650859907	428
16	408390	7.452644797693	536
16	408535	7.453851907953	536
16	408680	7.454934018213	428
16	409701	7.473303793627	536
16	409846	7.474223078271	536
16	409991	7.475134362915	428
16	411012	7.495360571166	536
16	411157	7.496531681426	536
16	411302	7.497487791686	428
16	412323	7.517472830551	536
16	412468	7.518617115195	536
16	412613	7.519618399839	428
16	413634	7.541573318313	536
16	413779	7.542681428573	536
16	413924	7.543628538833	428
16	414945	7.56375301168	536
16	415090	7.564636296324	536
16	415235	7.565502580968	428
16	416256	7.588910534798	536
16	416401	7.589802645058	536
16	416546	7.590650755318	428
16	417567	7.610996742495	536
16	417712	7.611871027139	536
16	417857	7.612836311783	428
16	418878	7.633899987049	536
16	419023	7.635008097309	536
16	419168	7.635973207569	428
16	420189	7.656718196708	536
16	420334	7.657664481352	536
16	420479	7.658548765996	428
16	421500	7.682546488666	536
16	421645	7.683528598926	536
16	421790	7.684448709186	428
16	422811	7.706445392726	536
16	422956	7.70733767737	536
16	423101	7.708437962014	428
16	424122	7.725098119777	536
16	424267	7.726143230037	536
16	424412	7.727297340297	428
16	425433	7.751376825651	536
16	425578	7.752485110295	536
16	425723	7.753486394939	428
16	426744	7.771874622209	536
16	426889	7.772820732469	536
16	427034	7.774010842729	428
16	428055	7.798161703461	536
16	428200	7.798963988105	536
16	428345	7.800073272749	428
16	429366	7.822980292041	536
16	429511	7.823953402301	536
16	429656	7.824927512561	428
16	430677	7.843518650818	536
16	430822	7.844590935462	536
16	430967	7.845538220106	428
16	431988	7.871679771938	536
16	432133	7.872625882198	536
16	432278	7.873689992458	428
16	433287	7.88672853473	536
16	433440	7.887719819374	536
16	433589	7.888559104018	428
16	434610	7.924107786912	536
16	434755	7.925125897172	536
16	434900	7.926226007432	428
16	435853	7.932011748248	536
16	436002	7.932922032892	536
16	436155	7.933842317536	428
16	437232	7.97493763744	536
16	437377	7.9758207477	536
16	437522	7.97682185796	428
16	438475	7.982796335346	536
16	438625	7.98389561999	536
16	438781	7.985103904634	428
16	439854	8.018581756439	536
16	439999	8.019806866699	536
16	440144	8.020780976959	428
16	441114	8.028893420569	536
16	441264	8.029767705213	536
16	441419	8.030867989857	428
16	442476	8.064839632463	536
16	442621	8.065659742723	536
16	442766	8.066615852983	428
16	443719	8.072455330369	536
16	443866	8.073491615013	536
16	444020	8.074483899657	428
16	445098	8.108299707393	536
16	445243	8.109353817653	536
16	445388	8.110111927913	428
16	446395	8.12290319286	536
16	446548	8.123903477504	536
16	446699	8.124868762148	428
16	447720	8.156894339956	536
16	447865	8.157939450216	536
16	448010	8.158724560476	428
16	448975	8.166462859433	536
16	449128	8.167517144077	536
16	449280	8.168455428721	428
16	450342	8.201050387082	536
16	450487	8.202158497342	536
16	450632	8.203132607602	428
16	451627	8.214427347526	536
16	451782	8.21552663217	536
16	451935	8.216590916814	428
16	452964	8.246434779292	536
16	453109	8.247191889552	536
16	453254	8.248138999812	428
16	454275	8.265518187823	536
16	454420	8.266806472467	536
16	454565	8.267780757111	428
16	455586	8.292811444502	536
16	455731	8.293829554762	536
16	455876	8.294758665022	428
16	456897	8.310120574319	536
16	457042	8.310823858963	536
16	457187	8.311645143607	428
16	458208	8.340775622979	536
16	458353	8.341829733239	536
16	458498	8.342956843499	428
16	459519	8.359023626453	536
16	459664	8.359987911097	536
16	459809	8.360971195741	428
16	460830	8.386853924251	536
16	460975	8.387602034511	536
16	461120	8.388594144771	428
16	462141	8.40976448354	536
16	462286	8.410872768184	536
16	462431	8.412099052828	428
16	463452	8.434753198379	536
16	463597	8.435861308639	536
16	463742	8.436943418899	428
16	464763	8.454384274398	536
16	464908	8.455402559042	536
16	465053	8.456286843686	428
16	466074	8.479280684603	536
16	466219	8.480361794863	536
16	466364	8.481272905123	428
16	467385	8.500023546419	536
16	467530	8.500960831063	536
16	467675	8.502106115707	428
16	468696	8.528563948651	536
16	468841	8.529438058911	536
16	468986	8.530412169171	428
16	470001	8.543946064713	536
16	470150	8.544748349357	536
16	470297	8.546046634001	428
16	471318	8.576703014188	536
16	471463	8.577766124448	536
16	471608	8.578884234708	428
16	472593	8.589029619529	536
16	472746	8.590101904173	536
16	472900	8.591085188817	428
16	473940	8.623495807294	536
16	474085	8.624513917554	536
16	474230	8.625335027814	428
16	475188	8.632173591457	536
16	475339	8.632948876101	536
16	475493	8.634157160745	428
16	476600	8.673909194254	536
16	476927	8.675701098252	536
16	477006	8.676057239596	536
16	477223	8.677330650328	428
16	477333	8.677960991298	536
16	477912	8.681381026868	428
16	479184	8.722373038971	536
16	479406	8.723492433875	536
16	479661	8.724757073835	536
16	479878	8.725920437655	536
16	479951	8.726290508327	428
16	480169	8.727512903231	428
16	481838	8.772852049282	536
16	482093	8.774368714484	536
16	482387	8.776065333838	536
16	482460	8.77651640451	428
16	482722	8.778021023864	536
16	483079	8.780129784562	428
16	484492	8.821117799793	536
16	484637	8.822100084437	536
16	484782	8.822957369081	428
16	485665	8.827985322707	536
16	485880	8.829194703265	536
16	486030	8.829997813525	428
16	487114	8.873702902809	536
16	487259	8.874820187453	536
16	487404	8.875857472097	428
16	488105	8.879666975083	536
16	488358	8.881084625939	536
16	488654	8.882835306969	428
16	489736	8.922005168268	536
16	489881	8.923014452912	536
16	490026	8.924132737556	428
16	490979	8.930377952066	536
16	491132	8.931306062326	536
16	491284	8.932028172586	428
16	492358	8.968467202949	536
16	492503	8.969647487593	536
16	492648	8.970558772237	428
16	493613	8.978212902544	536
16	493766	8.979222012804	536
16	493919	8.980241123064	428
16	494980	9.016379928273	536
16	495125	9.017245212917	536
16	495270	9.018273497561	428
16	496252	9.027960183138	536
16	496404	9.028906293398	536
16	496559	9.030033403658	428
16	497602	9.066537514918	536
16	497747	9.067357799562	536
16	497892	9.068566084206	428
16	498808	9.0741080299	536
16	498994	9.075226210832	536
16	499146	9.076191321092	428
16	500224	9.113181384178	536
16	500369	9.113965668822	536
16	500514	9.114804953466	428
16	501467	9.121436957924	536
16	501622	9.122554068184	536
16	501776	9.123510178444	428
16	502846	9.157666264608	536
16	502991	9.158765549252	536
16	503136	9.159856833896	428
16	504019	9.165109958038	536
16	504239	9.166688409268	536
16	504394	9.167698519528	428
16	505655	9.209900333909	536
16	505800	9.210738561753	536
16	505984	9.211785127173	536
16	506129	9.212614422295	536
16	506235	9.213227763265	428
16	506497	9.214805397383	428
16	508090	9.258300893493	536
16	508235	9.259463003753	536
16	508380	9.260491114013	428
16	509333	9.266595723823	536
16	509486	9.267533008467	536
16	509640	9.268597293111	428
16	510717	9.309847491935	536
16	511044	9.311708243637	536
16	511291	9.313309904971	536
16	511364	9.313805975643	428
16	511513	9.314617330959	536
16	511909	9.317048123313	428
16	513398	9.363506698699	536
16	513543	9.364452808959	536
16	513688	9.365444919219	428
16	514571	9.370526643143	536
16	514788	9.371835084959	536
16	514942	9.373034369603	428
16	516020	9.408411300775	536
16	516165	9.409375411035	536
16	516310	9.410304521295	428
16	517290	9.419810865247	536
16	517446	9.421027149891	536
16	517599	9.421947434535	428
16	518642	9.454992887813	536
16	518787	9.456172998073	536
16	518932	9.457039108333	428
16	519885	9.462995561959	536
16	520036	9.464103846603	536
16	520191	9.465123131247	428
16	521264	9.501367401135	536
16	521409	9.502178511395	536
16	521554	9.503134621655	428
16	522545	9.513844006826	536
16	522697	9.51488029147	536
16	522851	9.515773576114	428
16	523886	9.544087400891	536
16	524031	9.545105511151	536
16	524176	9.546169621411	428
16	525197	9.565697800814	536
16	525342	9.566806085458	536
16	525487	9.567951370102	428
16	526508	9.594689106383	536
16	526653	9.595743216643	536
16	526798	9.596780326903	428
16	527819	9.613067427529	536
16	527964	9.614130712173	536
16	528109	9.615176996817	428
16	529130	9.639200174232	536
16	529275	9.640227284492	536
16	529420	9.641219394752	428
16	530441	9.660401160515	536
16	530586	9.661428445159	536
16	530731	9.662492729803	428
16	531752	9.686467633924	536
16	531897	9.687485744184	536
16	532042	9.688342854444	428
16	533063	9.706331067041	536
16	533208	9.707394351685	536
16	533353	9.708143636329	428
16	534374	9.733860597491	536
16	534519	9.734923707751	536
16	534664	9.735798818011	428
16	535685	9.756503051355	536
16	535830	9.757656335999	536
16	535975	9.758513620643	428
16	536996	9.7851297447	536
16	537141	9.78619285496	536
16	537286	9.78727496522	428
16	538307	9.802431139147	536
16	538452	9.803494423791	536
16	538597	9.804495708435	428
16	539618	9.837293749002	536
16	539763	9.838383859262	536
16	539908	9.839357969522	428
16	540861	9.845441192158	536
16	541014	9.846423476802	536
16	541165	9.847262761446	428
16	542240	9.886764081606	536
16	542385	9.887854191866	536
16	542530	9.888693302126	428
16	543483	9.894173070766	536
16	543628	9.89516435541	536
16	543783	9.896246640054	428
16	544862	9.931210890384	536
16	545007	9.932274000644	536
16	545152	9.933140110904	428
16	546105	9.939159551856	536
16	546255	9.9400788365	536
16	546409	9.941044121144	428
16	547484	9.982993807056	536
16	547706	9.984492635031	536
16	548033	9.986492330407	428
16	548143	9.987095471751	536
16	548473	9.989139155935	536
16	548986	9.992144041657	428
17	786	0.004812819396	0.001944819484
17	859	0.005141890068	0.00180370705
17	1076	0.006462484598	0.003594484686
17	1116	0.00664655527	0.003308372252
17	1366	0.0080101498	0.005142149888
17	1410	0.008325220472	0.004987037454
17	3163	0.056470713766	0.00071241262
17	3385	0.05777010867	0.002011807524
17	3712	0.059616800178	0.003858499032
17	3756	0.05980087085	0.00162370705
17	4404	0.063419262512	0.005242098712
17	4698	0.065305887216	0.007128723416
17	5785	0.108151602394	0.001018426966
17	5930	0.109241887038	0.00210871161
17	6075	0.110036171682	0.002902996254
17	7028	0.115741284872	0.00100914163
17	7177	0.116732395132	0.00200025189
17	7331	0.117850505392	0.00311836215
17	8407	0.150997146406	0.000847426966
17	8552	0.15191643105	0.00176671161
17	8697	0.152881715694	0.002731996254
17	9671	0.161698167455	0.00101814163
17	9825	0.162842277715	0.00216225189
17	9978	0.163843387975	0.00316336215
17	11029	0.202538702385	0.00094641262
17	11174	0.203574987029	0.001982697264
17	11319	0.204504271673	0.002911981908
17	12089	0.209044880461	0.001989674484
17	12380	0.210749499815	0.003694293838
17	12572	0.211868680747	0.00481347477
17	13651	0.249869305614	0.00102741262
17	13796	0.250887590258	0.002045697264
17	13941	0.251879874902	0.003037981908
17	14894	0.25799038347	0.00089216539
17	15046	0.25890049373	0.00180227565
17	15198	0.25975760399	0.00265938591
17	16273	0.296724802945	0.001045426966
17	16418	0.297590087589	0.00191071161
17	16563	0.298573372233	0.002893996254
17	17516	0.304422581393	0.00097316539
17	17665	0.305368691653	0.00191927565
17	17819	0.306414801913	0.00296538591
17	18895	0.343602529483	0.000946426966
[...]
22	102355	1.869204404073	0.002838188928
22	102897	1.872533251271	0.006167036126
22	104794	1.91617649944	0.00076614163
22	105192	1.918390252206	0.002979894396
22	105551	1.920385114168	0.004974756358
22	107294	1.962433624557	0.00106314163
22	107517	1.963660891989	0.002290409062
22	107731	1.964907088749	0.003536605822
22	109916	2.014411344959	0.00100014163
22	110139	2.015818565479	0.00240736215
22	110353	2.017091762239	0.00368055891
22	112538	2.062914229043	0.00100014163
22	112720	2.064023378891	0.002109291478
22	112975	2.065522646323	0.00360855891
22	115160	2.107335315238	0.00105414163
22	115416	2.10892360643	0.002642432822
22	115597	2.110240756278	0.00395958267
22	117782	2.156658693308	0.00092816539
22	118038	2.158102913828	0.00237238591
22	118219	2.159159063676	0.003428535758
22	120404	2.203508002548	0.00105414163
22	120586	2.204734152396	0.002280291478
22	120841	2.206071443588	0.00361758267
22	123026	2.246979815594	0.00090114163
22	123249	2.248216036114	0.00213736215
22	123463	2.249363256634	0.00328458267
22	125648	2.298150507502	0.00096416539
22	125904	2.299747728022	0.00256138591
22	126085	2.30110987787	0.003923535758
22	128270	2.348288584964	0.00103614163
22	128493	2.349560852396	0.002308409062
22	128707	2.350780072916	0.003527629582
22	130892	2.400113001303	0.00085616539
22	131041	2.401032111563	0.00177527565
22	131329	2.402487418583	0.00323058267
22	133514	2.445236227111	0.00076614163
22	133737	2.446580423871	0.00211033839
22	133951	2.447934620631	0.00346453515
22	136136	2.489260328822	0.00083816539
22	136359	2.490568549342	0.00214638591
22	136573	2.491769769862	0.00334760643
22	138758	2.534742263232	0.00088316539
22	138940	2.53586941308	0.002010315238
22	139195	2.537476680512	0.00361758267
22	141380	2.579545741294	0.00085616539
22	141636	2.581062008726	0.002372432822
22	141817	2.582091158574	0.00340158267
22	144002	2.626642451288	0.00089216539
22	144225	2.628184671808	0.00243438591
22	144439	2.62943993924	0.003689653342
22	146624	2.671547859059	0.00087414163
22	146880	2.673028126491	0.002354409062
22	147061	2.674111276339	0.00343755891
22	149246	2.715445465334	0.00107214163
22	149469	2.716690685854	0.00231736215
22	149683	2.718098922202	0.003725598498
22	151868	2.766832417409	0.00089216539
22	152091	2.768032637929	0.00209238591
22	152415	2.769912215247	0.003971963228
22	154490	2.815223490277	0.00088316539
22	154751	2.816622910423	0.002282585536
22	155081	2.818475471913	0.004135147026
22	157112	2.861715314174	0.00097314163
22	157478	2.863756819338	0.003014646794
22	157881	2.866094808772	0.005352636228
22	160138	2.917468514892	0.0013386259
22	160539	2.919837066968	0.003707177976
22	160957	2.922156042056	0.006026153064
22	162905	2.97420587613	0.001199379362
22	163351	2.976560912476	0.003554415708
22	163916	2.979488243944	0.006481747176
22	166239	3.028845585823	0.00084716539
22	166509	3.030433806343	0.00243538591
22	166702	3.031615956191	0.003617535758
22	168857	3.077972492082	0.001181236062
22	169092	3.079325759514	0.002534503494
22	169320	3.080643956274	0.003852700254
22	171485	3.127351215398	0.00108116539
22	171675	3.128406365246	0.002136315238
22	171944	3.129950632678	0.00368058267
22	174107	3.174943589075	0.00091914163
22	174340	3.176323809595	0.00229936215
22	174564	3.177561006355	0.00353655891
22	176725	3.219985501399	0.00082014163
22	176995	3.221537721919	0.00237236215
22	177185	3.222674871767	0.003509511998
22	179353	3.268441947855	0.00085616539
22	179508	3.269226058115	0.00164027565
22	179808	3.270834278635	0.00324849617
22	182019	3.317535879196	0.00089214163
22	182203	3.318654029044	0.002010291478
22	182458	3.320279382976	0.00363564541
22	184643	3.368975282736	0.00096416539
22	184899	3.370545503256	0.00253438591
22	185080	3.371853653104	0.003842535758
22	187237	3.413159433966	0.00093714163
22	187429	3.414214583814	0.001992291478
22	187698	3.415893890834	0.003671598498
22	189842	3.457901735828	0.00103616539
22	190114	3.45940900326	0.002543432822
22	190306	3.460447153108	0.00358158267
22	192471	3.506674713025	0.00105414163
22	192741	3.508154980457	0.002534409062
22	192934	3.509427130305	0.00380655891
22	195081	3.556135915918	0.00084716539
22	195314	3.557507136438	0.00221838591
22	195542	3.559005372786	0.003716622258
22	197732	3.60699167618	0.00111714163
22	198003	3.608561967372	0.002687432822
22	198190	3.60969911722	0.00382458267
22	200357	3.650430452206	0.00100916539
22	200590	3.651684719638	0.002263432822
22	200812	3.652975955986	0.00355466917
22	202997	3.700379302584	0.00092814163
22	203146	3.701271412844	0.00182025189
22	203434	3.703023766776	0.003572605822
22	205619	3.74987779031	0.00082914163
22	205875	3.75137601083	0.00232736215
22	206056	3.752594160678	0.003545511998
22	208241	3.800644024537	0.00090116539
22	208497	3.802106291969	0.002363432822
22	208678	3.803432441817	0.00368958267
22	210863	3.84651602933	0.00096414163
22	211086	3.84765324985	0.00210136215
22	211300	3.84907944661	0.00352755891
22	213485	3.896376898621	0.00109916539
22	213741	3.897884166053	0.002606432822
22	213922	3.899093315901	0.00381558267
22	216107	3.942425942753	0.00077514163
22	216289	3.943679092601	0.002028291478
22	216544	3.945304383793	0.00365358267
22	218729	3.985152386941	0.00100916539
22	218985	3.986731654373	0.002588432822
22	219166	3.987913804221	0.00377058267
22	221351	4.032897236599	0.00109014163
22	221607	4.034476504031	0.002669409062
22	221788	4.035613653879	0.00380655891
22	223973	4.085061463044	0.00095514163
22	224229	4.086631754236	0.002525432822
22	224410	4.087849904084	0.00374358267
22	226595	4.133819328658	0.00092814163
22	226777	4.134973478506	0.002082291478
22	227032	4.136400785526	0.003509598498
22	229217	4.181710822345	0.00101814163
22	229440	4.182920042865	0.00222736215
22	229654	4.184256279213	0.003563598498
22	231839	4.231197055805	0.00090114163
22	232095	4.232857346997	0.002561432822
22	232276	4.233994496845	0.00369858267
22	234461	4.282342529365	0.00097314163
22	234684	4.283641796797	0.002272409062
22	234898	4.284896993557	0.003527605822
22	237083	4.334076510338	0.00081116539
22	237383	4.335630048068	0.00236470312
22	237674	4.337247601626	0.003982256678
22	239705	4.377096091671	0.00075714163
22	239928	4.378332359103	0.001993409062
22	240142	4.379515555863	0.003176605822
22	242327	4.427682214193	0.00101814163
22	242509	4.428791364041	0.002127291478
22	242764	4.430488631473	0.00382455891
22	244949	4.472245387796	0.00108114163
22	245172	4.473409608316	0.00224536215
22	245386	4.474808805076	0.00364455891
22	247571	4.521742860154	0.00099116539
22	247827	4.523286151346	0.002534456582
22	248008	4.524513301194	0.00376160643
22	250193	4.57348744129	0.00078416539
22	250416	4.575002708722	0.002299432822
22	250630	4.57635694507	0.00365366917
22	252815	4.621832830367	0.00095514163
22	253038	4.623033097799	0.002155409062
22	253252	4.624306294559	0.003428605822
22	255437	4.667188529472	0.00073014163
22	255586	4.668107639732	0.00164925189
22	255874	4.67003089984	0.003572511998
22	258059	4.710514376606	0.00091014163
22	258315	4.712030644038	0.002426409062
22	258496	4.713194793886	0.00359055891
22	260681	4.7570490286	0.00100014163
22	260937	4.75870024912	0.00265136215
22	261118	4.759828398968	0.003779511998
22	263303	4.809266067379	0.00099114163
22	263669	4.811280643215	0.003005717466
22	264072	4.813636643127	0.005361717378
22	265925	4.855715648603	0.00105416539
22	266112	4.856860798451	0.002199315238
22	266549	4.859247915947	0.004586432734
22	268547	4.90643847142	0.00095516539
22	268880	4.908263047256	0.002779741226
22	269171	4.910069752046	0.004586446016
22	271169	4.956187286671	0.00082016539
22	271351	4.957287436519	0.001920315238
22	271683	4.959266037597	0.003898916316
22	273791	5.007593344401	0.00096416539
22	274014	5.008883564921	0.00225438591
22	274338	5.010745046325	0.004115867314
22	277224	5.064372217685	0.001839890848
22	277751	5.067162302615	0.004629975778
22	278091	5.069067037579	0.006534710742
22	280316	5.118108711489	0.00106314163
22	280551	5.119479932009	0.00243436215
22	280778	5.120834152529	0.00378858267
22	282924	5.163813006052	0.00093716539
22	283155	5.165139202812	0.00226336215
22	283380	5.166358399572	0.00348255891
22	285544	5.213058377067	0.00082016539
22	285777	5.214384644499	0.002146432822
22	286005	5.215981880847	0.00374366917
22	288157	5.260527127166	0.001118236062
22	288313	5.261401237426	0.001992346322
22	288619	5.263225497534	0.00381660643
22	290788	5.311337906745	0.00109014163
22	291021	5.312430127265	0.00218236215
22	291247	5.313757324025	0.00350955891
22	293456	5.362975139852	0.00082914163
22	293605	5.363885250112	0.00173925189
22	293893	5.365502557132	0.00335655891
22	296078	5.414686461901	0.00091914163
22	296260	5.415750611749	0.001983291478
22	296515	5.417294879181	0.00352755891
22	298660	5.457430603617	0.00092816539
22	298892	5.458765871049	0.002263432822
22	299117	5.460030091569	0.003527653342
22	301322	5.508567730172	0.00097316539
22	301578	5.510191997604	0.002597432822
22	301759	5.511302147452	0.00370758267
22	303944	5.559211983455	0.00094616539
22	304093	5.560167093715	0.00190127565
22	304381	5.561766400735	0.00350058267
22	306566	5.605490130712	0.00085614163
22	306748	5.60658128056	0.001947291478
22	307003	5.608170547992	0.00353655891
22	309188	5.657122010044	0.00089214163
22	309411	5.658367230564	0.00213736215
22	309625	5.659631497996	0.003401629582
22	311810	5.700146699051	0.00087414163
22	311992	5.701336848899	0.002064291478
22	312247	5.702944140091	0.00367158267
22	314432	5.748202442006	0.00096416539
22	314688	5.749826662526	0.00258838591
22	314869	5.750981812374	0.003743535758
22	317054	5.79295835239	0.00089216539
22	317310	5.794510619822	0.002444432822
22	317491	5.79589076967	0.00382458267
22	319676	5.845119051721	0.00091014163
22	319858	5.846192201569	0.001983291478
22	320113	5.847691508589	0.003482598498
22	322298	5.892588454137	0.00108116539
22	322480	5.893670603985	0.002163315238
22	322735	5.895142871417	0.00363558267
22	324920	5.937367377764	0.00069414163
22	325143	5.938702598284	0.00202936215
22	325357	5.940155795044	0.00348255891
22	327542	5.984493029352	0.00094614163
22	327765	5.985783296784	0.002236409062
22	327979	5.987182533132	0.00363564541
22	330164	6.029625958799	0.00081114163
22	330346	6.030726108647	0.001911291478
22	330601	6.032288376079	0.00347355891
22	332786	6.077703616524	0.00107214163
22	332968	6.078758766372	0.002127291478
22	333223	6.080420033804	0.00378855891
22	335408	6.120471105609	0.00098214163
22	335631	6.121851302369	0.00236233839
22	335845	6.123151538717	0.003662574738
22	338030	6.167442640489	0.00100916539
22	338212	6.168641790337	0.002208315238
22	338467	6.170240050445	0.003806575346
22	340652	6.214504378237	0.00104514163
22	340875	6.215749598757	0.00229036215
22	341089	6.217211835105	0.003752598498
22	343274	6.2650470189	0.00090116539
22	343530	6.266536286332	0.002390432822
22	343711	6.26780843618	0.00366258267
22	345896	6.317400389406	0.00092814163
22	346152	6.318925609926	0.00245336215
22	346333	6.320125759774	0.003653511998
22	348518	6.363932832691	0.00078414163
22	348700	6.365122982539	0.001974291478
22	348955	6.366487203059	0.003338511998
22	351140	6.408411541224	0.00097316539
22	351396	6.409846832416	0.002408456582
22	351577	6.411055982264	0.00361760643
22	353762	6.453421292124	0.00098216539
22	354018	6.454982559556	0.002543432822
22	354199	6.456137709404	0.00369858267
22	356384	6.497887174035	0.00092816539
22	356607	6.499276370795	0.00231736215
22	356821	6.500567591315	0.00360858267
22	359006	6.549358884033	0.00082914163
22	359262	6.550875175225	0.002345432822
22	359443	6.552048325073	0.00351858267
22	361628	6.591427329574	0.00083816539
22	361851	6.592915526334	0.00232636215
22	362065	6.594089762682	0.003500598498
22	364250	6.638121859634	0.00094616539
22	364432	6.639168009482	0.001992315238
22	364687	6.640739230002	0.003563535758
22	366872	6.681584729224	0.00084714163
22	367095	6.682874949744	0.00213736215
22	367309	6.684022170264	0.00328458267
22	369494	6.729959450163	0.00090116539
22	369717	6.731303717595	0.002245432822
22	369931	6.732630953943	0.00357266917
22	372116	6.776000327773	0.00103614163
22	372339	6.777335548293	0.00237136215
22	372553	6.778617784641	0.003653598498
22	374738	6.827626593672	0.00085614163
22	374961	6.828907814192	0.00213736215
22	375175	6.830208081624	0.003437629582
22	377344	6.872002069733	0.00089214163
22	377612	6.873545360925	0.002435432822
22	377797	6.874754510773	0.00364458267
22	379982	6.919033724316	0.00083814163
22	380131	6.919826834576	0.00163125189
22	380419	6.921570094684	0.003374511998
22	382604	6.962730668017	0.00111714163
22	382860	6.964372959209	0.002759432822
22	383041	6.965681109057	0.00406758267
22	385218	7.006407175564	0.00091914163
22	385408	7.007453325412	0.001965291478
22	385663	7.009132679344	0.00364464541
22	387848	7.058193365572	0.00091914163
22	388104	7.059727656764	0.002453432822
22	388285	7.061026806612	0.00375258267
22	390470	7.109972077979	0.00097314163
22	390726	7.111614345411	0.002615409062
22	390907	7.112904495259	0.00390555891
22	393092	7.158646378685	0.00088316539
22	393241	7.159529488945	0.00176627565
22	393529	7.161191749053	0.003428535758
22	395714	7.204133544823	0.00100916539
22	395937	7.205603765343	0.00247938591
22	396151	7.207102001691	0.003977622258
22	398336	7.253853785884	0.00091014163
22	398592	7.255406077076	0.002462432822
22	398773	7.256381226924	0.00343758267
22	400958	7.304286748793	0.00073014163
22	401214	7.305757969313	0.00220136215
22	401395	7.306859119161	0.003302511998
22	403580	7.354733655955	0.00090116539
22	403836	7.356249923387	0.002417432822
22	404017	7.357450073235	0.00361758267
22	406202	7.407506028537	0.00109916539
22	406458	7.409130319729	0.002723456582
22	406639	7.410393469577	0.00398660643
22	408824	7.455790159843	0.00085614163
22	409080	7.457288380363	0.00235436215
22	409261	7.458425530211	0.003491511998
22	411446	7.498442933316	0.00095514163
22	411702	7.500076224508	0.002588432822
22	411883	7.501276374356	0.00378858267
22	414068	7.544646704223	0.00101816539
22	414324	7.546297971655	0.002669432822
22	414505	7.547561121503	0.00393258267
22	416690	7.591479896948	0.00082914163
22	416913	7.593004117468	0.00235336215
22	417127	7.594241314228	0.00359055891
22	419312	7.636874372959	0.00090116539
22	419535	7.638155593479	0.00218238591
22	419749	7.639311813999	0.00333860643
22	421934	7.685358850816	0.00091014163
22	422157	7.686766071336	0.00231736215
22	422371	7.688255268096	0.00380655891
22	424556	7.728252505687	0.00095516539
22	424812	7.729723726207	0.00242638591
22	424993	7.730779876055	0.003482535758
22	427178	7.775073984359	0.00106314163
22	427434	7.776608204879	0.00259736215
22	427615	7.777817354727	0.003806511998
22	429800	7.825675677951	0.00074816539
22	430023	7.826893898471	0.00196638591
22	430237	7.828194095231	0.00326658267
22	432422	7.874789157848	0.00109916539
22	432645	7.876151354608	0.00246136215
22	432859	7.877577590956	0.003887598498
22	435044	7.927118149062	0.00089214163
22	435267	7.928615345822	0.00238933839
22	435558	7.930295837704	0.004069830272
22	437666	7.97788502335	0.00106316539
22	437889	7.97920224387	0.00238038591
22	438108	7.98055644063	0.00373458267
22	440288	8.021763142349	0.00098216539
22	440544	8.023360362869	0.00257938591
22	440725	8.024587512717	0.003806535758
22	442910	8.067517018373	0.00090116539
22	443166	8.068952285805	0.002336432822
22	443347	8.070224435653	0.00360858267
22	445532	8.111166069543	0.00105414163
22	445755	8.112591290063	0.00247936215
22	445969	8.113927526411	0.003815598498
22	448154	8.159679702106	0.00095514163
22	448336	8.160761851954	0.002037291478
22	448591	8.162162119386	0.00343755891
22	450776	8.203970772992	0.00083816539
22	450999	8.205440993512	0.00230838591
22	451213	8.20698422986	0.003851622258
22	453398	8.249085165202	0.00094616539
22	453547	8.249923275462	0.00178427565
22	453835	8.251720606242	0.00358160643
22	456020	8.295605806652	0.00084714163
22	456243	8.296977003412	0.00221833839
22	456457	8.29819623976	0.003437574738
22	458642	8.343965985129	0.00100914163
22	458865	8.345418181889	0.00246133839
22	459079	8.346700402409	0.00374355891
22	461264	8.389387286401	0.00079314163
22	461487	8.390695553833	0.002101409062
22	461701	8.392148790181	0.00355464541
22	463886	8.437799560529	0.00085614163
22	464109	8.439215781049	0.00227236215
22	464323	8.440543017397	0.003599598498
22	466508	8.482237046753	0.00096414163
22	466731	8.483446267273	0.00217336215
22	466945	8.484899503621	0.003626598498
22	469130	8.531457310801	0.00104514163
22	469386	8.532928531321	0.00251636215
22	469567	8.534191681169	0.003779511998
22	471752	8.579929400098	0.00104516539
22	472008	8.58147266753	0.002588432822
22	472189	8.582753817378	0.00386958267
22	474374	8.626479193204	0.00114416539
22	474597	8.627850413724	0.00251538591
22	474811	8.629168650072	0.003833622258
22	477440	8.678600086016	0.001269435688
22	477801	8.68055993215	0.003229281822
22	478182	8.683066707612	0.005736057284
22	480244	8.728012958361	0.001722450034
22	480831	8.731612104967	0.00532159664
22	481212	8.733594800343	0.007304292016
22	483338	8.781604377896	0.001474593334
22	483645	8.783236898888	0.003107114326
22	484021	8.785387466792	0.00525768223
22	486182	8.830889955155	0.00089214163
22	486416	8.832207175675	0.00220936215
22	486642	8.833597396195	0.00359958267
22	488805	8.883565472359	0.00073016539
22	489071	8.885117763551	0.002282456582
22	489263	8.886353913399	0.00351860643
22	491435	8.933010337976	0.00098216539
22	491705	8.934778558496	0.00275038591
22	491896	8.935969708344	0.003941535758
22	494071	8.981241264694	0.00100014163
22	494340	8.982793532126	0.002552409062
22	494531	8.984056681974	0.00381555891
22	496713	9.030943545288	0.00091014163
22	496948	9.032305742048	0.00227233839
22	497162	9.033542978396	0.003509574738
22	499300	9.077227462722	0.00103614163
22	499567	9.078653753914	0.002462432822
22	499759	9.079970903762	0.00377958267
22	501928	9.124384343834	0.00087416539
22	502162	9.125692564354	0.00218238591
22	502387	9.126884784874	0.00337460643
22	504545	9.168653684918	0.00095516539
22	504778	9.170024905438	0.00232638591
22	505006	9.171568141786	0.003869622258
22	506787	9.216413093955	0.001607696572
22	507234	9.219048154061	0.004242756678
22	507545	9.220762659225	0.005957261842
22	508524	9.261554279403	0.00106316539
22	508780	9.262971546835	0.002480432822
22	508961	9.264243696683	0.00375258267
22	511653	9.315563472589	0.001757496946
22	512058	9.317913319787	0.004107344144
22	512475	9.320230523193	0.00642454755
22	513832	9.366301060849	0.00085614163
22	514198	9.368261669251	0.002816750032
22	514528	9.370243588013	0.004798668794
22	516454	9.411133662925	0.00082914163
22	516677	9.412450859685	0.00214633839
22	516891	9.413715056445	0.00341053515
22	519076	9.457895249963	0.00085614163
22	519258	9.458806399811	0.001767291478
22	519513	9.460368667243	0.00332955891
22	521698	9.504062763285	0.00092814163
22	521921	9.505451983805	0.00231736215
22	522135	9.506725220153	0.003590598498
22	524320	9.547169786801	0.00100016539
22	524576	9.548722077993	0.002552456582
22	524757	9.549778227841	0.00360860643
22	526942	9.597600468533	0.00082014163
22	527165	9.598944689053	0.00216436215
22	527379	9.600127956485	0.003347629582
22	529564	9.641967560142	0.00074816539
22	529820	9.643564780662	0.00234538591
22	530001	9.64468393051	0.003464535758
22	532186	9.689423996074	0.00108114163
22	532409	9.690885216594	0.00254236215
22	532623	9.692185452942	0.003842598498
22	534808	9.736726959641	0.00092814163
22	534957	9.737565069901	0.00176625189
22	535245	9.739389400681	0.00359058267
22	537430	9.78820310685	0.00092814163
22	537653	9.78956532737	0.00229036215
22	537867	9.790847563718	0.003572598498
22	540052	9.840115134912	0.00075716539
22	540308	9.841613426104	0.002255456582
22	540489	9.842732575952	0.00337460643
22	542674	9.889621467516	0.00092816539
22	542856	9.890658617364	0.001965315238
22	543221	9.89271925059	0.004025948464
22	545296	9.934068276294	0.00092816539
22	545552	9.935521496814	0.00238138591
22	545733	9.936856646662	0.003716535758
22	548250	9.987803566469	0.001311236062
22	548618	9.989923352409	0.003431022002
22	548907	9.991791986527	0.00529965612

