version 3
run TCP4-0-20241031-17:52:41-14592
attr configname TCP4
attr datetime 20241031-17:52:41
attr datetimef 20241031-175241
attr experiment TCP4
attr inifile omnetpp.ini
attr iterationvars ""
attr iterationvarsd ""
attr iterationvarsf ""
attr measurement ""
attr network MixedWLAN
attr processid 14592
attr repetition 0
attr replication #0
attr resultdir results
attr runnumber 0
attr seedset 0
config image-path ../../inet4.5/images
config **.numHostsTCP 5
config **.numHostsUDP 0
config network MixedWLAN
config sim-time-limit 10s
config **.mac.**.vector-recording false
config **.mac.**.bin-recording false
config **.tcp.**.vector-recording false
config **.tcp.**.bin-recording false
config **.radio.**.vector-recording false
config **.radio.**.bin-recording false
config **.constraintAreaMinX 0m
config **.constraintAreaMinY 0m
config **.constraintAreaMinZ 0m
config **.constraintAreaMaxX 50m
config **.constraintAreaMaxY 50m
config **.constraintAreaMaxZ 0m
config **.ap.wlan[*].address "\"10:00:00:00:00:00\""
config **.*host*.**.mgmt.accessPointAddress "\"10:00:00:00:00:00\""
config **.numApps 1
config **.udphost[0].app[*].typename UdpEchoApp
config **.udphost[0].app[*].localPort 3088
config **.udphost[*].app[*].typename UdpBasicApp
config **.udphost[*].app[*].destAddresses "\"udphost[0]\""
config **.udphost[*].app[*].messageLength 1500B
config **.udphost[*].app[*].sendInterval "40ms + uniform(-5ms, 5ms)"
config **.udphost[*].app[*].destPort 3088
config **.udphost[*].app[*].startTime 0s
config **.udphost[*].app[*].stopTime -1s
config **.tcphost[0].numApps 1
config **.tcphost[0].app[*].typename TcpGenericServerApp
config **.tcphost[0].app[0].localPort 1000
config **.tcphost[0].app[0].active true
config **.tcphost[*].numApps 1
config **.tcphost[*].app[*].typename TcpBasicClientApp
config **.tcphost[*].app[0].active true
config **.tcphost[*].app[0].connectAddress "\"tcphost[0]\""
config **.tcphost[*].app[0].connectPort 1000
config **.tcphost[*].app[0].startTime 0s
config **.tcphost[*].app[0].stopTime -1s
config **.tcphost[*].app[0].thinkTime 0s
config **.tcphost[*].app[0].idleInterval "40ms + uniform(-5ms, 5ms)"
config **.tcphost[*].app[0].reconnectInterval 0s
config **.tcphost[*].app[0].numRequestsPerSession 1
config **.tcphost[*].app[0].requestLength 1500B
config **.tcphost[*].app[0].replyLength 1500B
config **.wlan[*].bitrate 433.3Mbps
config **.wlan[*].mac.dcf.channelAccess.pendingQueue.packetCapacity 40
config **.wlan[*].mac.dcf.channelAccess.cwMin 20
config **.bandName "\"5 GHz (20 MHz)\""
config **.opMode "\"ac\""
config **.wlan[*].radio.antenna.numAntennas 8
config **.wlan[*].radio.transmitter.power 10mW
config **.wlan[*].radio.transmitter.headerLength 192b
config **.wlan[*].radio.transmitter.centerFrequency 5GHz
config **.wlan[*].radio.receiver.sensitivity -85dBm
config **.wlan[*].radio.receiver.snirThreshold 4dB

vector 0 MixedWLAN.tcphost[0].udp passedUpPk:vector(count) ETV
attr interpolationmode none
attr recordingmode vector(count)
attr source packetSentToUpper
attr title "packets passed up, count"
vector 1 MixedWLAN.tcphost[0].udp droppedPkWrongPort:vector(count) ETV
attr interpolationmode none
attr recordingmode vector(count)
attr source packetDropReasonIsNoPortFound(packetDropped)
attr title "packets dropped (wrong port), count"
vector 2 MixedWLAN.tcphost[0].udp droppedPkBadChecksum:vector(count) ETV
attr interpolationmode none
attr recordingmode vector(count)
attr source packetDropReasonIsIncorrectlyReceived(packetDropped)
attr title "packets dropped (checksum error), count"
vector 3 MixedWLAN.tcphost[1].udp passedUpPk:vector(count) ETV
attr interpolationmode none
attr recordingmode vector(count)
attr source packetSentToUpper
attr title "packets passed up, count"
vector 4 MixedWLAN.tcphost[1].udp droppedPkWrongPort:vector(count) ETV
attr interpolationmode none
attr recordingmode vector(count)
attr source packetDropReasonIsNoPortFound(packetDropped)
attr title "packets dropped (wrong port), count"
vector 5 MixedWLAN.tcphost[1].udp droppedPkBadChecksum:vector(count) ETV
attr interpolationmode none
attr recordingmode vector(count)
attr source packetDropReasonIsIncorrectlyReceived(packetDropped)
attr title "packets dropped (checksum error), count"
vector 6 MixedWLAN.tcphost[1].app[0] numActiveSessions:vector ETV
attr autoWarmupFilter false
attr interpolationmode sample-hold
attr recordingmode vector
attr source warmup(sum(connect))
attr title "number of active sessions"
vector 7 MixedWLAN.tcphost[2].udp passedUpPk:vector(count) ETV
attr interpolationmode none
attr recordingmode vector(count)
attr source packetSentToUpper
attr title "packets passed up, count"
vector 8 MixedWLAN.tcphost[2].udp droppedPkWrongPort:vector(count) ETV
attr interpolationmode none
attr recordingmode vector(count)
attr source packetDropReasonIsNoPortFound(packetDropped)
attr title "packets dropped (wrong port), count"
vector 9 MixedWLAN.tcphost[2].udp droppedPkBadChecksum:vector(count) ETV
attr interpolationmode none
attr recordingmode vector(count)
attr source packetDropReasonIsIncorrectlyReceived(packetDropped)
attr title "packets dropped (checksum error), count"
vector 10 MixedWLAN.tcphost[2].app[0] numActiveSessions:vector ETV
attr autoWarmupFilter false
attr interpolationmode sample-hold
attr recordingmode vector
attr source warmup(sum(connect))
attr title "number of active sessions"
vector 11 MixedWLAN.tcphost[3].udp passedUpPk:vector(count) ETV
attr interpolationmode none
attr recordingmode vector(count)
attr source packetSentToUpper
attr title "packets passed up, count"
vector 12 MixedWLAN.tcphost[3].udp droppedPkWrongPort:vector(count) ETV
attr interpolationmode none
attr recordingmode vector(count)
attr source packetDropReasonIsNoPortFound(packetDropped)
attr title "packets dropped (wrong port), count"
vector 13 MixedWLAN.tcphost[3].udp droppedPkBadChecksum:vector(count) ETV
attr interpolationmode none
attr recordingmode vector(count)
attr source packetDropReasonIsIncorrectlyReceived(packetDropped)
attr title "packets dropped (checksum error), count"
vector 14 MixedWLAN.tcphost[3].app[0] numActiveSessions:vector ETV
attr autoWarmupFilter false
attr interpolationmode sample-hold
attr recordingmode vector
attr source warmup(sum(connect))
attr title "number of active sessions"
vector 15 MixedWLAN.tcphost[4].udp passedUpPk:vector(count) ETV
attr interpolationmode none
attr recordingmode vector(count)
attr source packetSentToUpper
attr title "packets passed up, count"
vector 16 MixedWLAN.tcphost[4].udp droppedPkWrongPort:vector(count) ETV
attr interpolationmode none
attr recordingmode vector(count)
attr source packetDropReasonIsNoPortFound(packetDropped)
attr title "packets dropped (wrong port), count"
vector 17 MixedWLAN.tcphost[4].udp droppedPkBadChecksum:vector(count) ETV
attr interpolationmode none
attr recordingmode vector(count)
attr source packetDropReasonIsIncorrectlyReceived(packetDropped)
attr title "packets dropped (checksum error), count"
vector 18 MixedWLAN.tcphost[4].app[0] numActiveSessions:vector ETV
attr autoWarmupFilter false
attr interpolationmode sample-hold
attr recordingmode vector
attr source warmup(sum(connect))
attr title "number of active sessions"
vector 19 MixedWLAN.tcphost[1].ipv4.arp arpRequestSent:vector(packetBytes) ETV
attr recordingmode vector(packetBytes)
attr source arpRequestSent
attr title "ARP request sent, packetBytes"
vector 20 MixedWLAN.tcphost[2].ipv4.arp arpRequestSent:vector(packetBytes) ETV
attr recordingmode vector(packetBytes)
attr source arpRequestSent
attr title "ARP request sent, packetBytes"
vector 21 MixedWLAN.tcphost[3].ipv4.arp arpRequestSent:vector(packetBytes) ETV
attr recordingmode vector(packetBytes)
attr source arpRequestSent
attr title "ARP request sent, packetBytes"
vector 22 MixedWLAN.tcphost[4].ipv4.arp arpRequestSent:vector(packetBytes) ETV
attr recordingmode vector(packetBytes)
attr source arpRequestSent
attr title "ARP request sent, packetBytes"
vector 23 MixedWLAN.tcphost[0].ipv4.arp arpReplySent:vector(packetBytes) ETV
attr recordingmode vector(packetBytes)
attr source arpReplySent
attr title "ARP replies sent, packetBytes"
vector 24 MixedWLAN.tcphost[4].app[0] packetSent:vector(packetBytes) ETV
attr interpolationmode none
attr recordingmode vector(packetBytes)
attr source packetSent
attr title "packets sent, packetBytes"
vector 25 MixedWLAN.tcphost[3].app[0] packetSent:vector(packetBytes) ETV
attr interpolationmode none
attr recordingmode vector(packetBytes)
attr source packetSent
attr title "packets sent, packetBytes"
vector 26 MixedWLAN.tcphost[0].app[0] packetReceived:vector(packetBytes) ETV
attr interpolationmode none
attr recordingmode vector(packetBytes)
attr source packetReceived
attr title "packets received, packetBytes"
vector 27 MixedWLAN.tcphost[0].app[0] endToEndDelay:vector ETV
attr interpolationmode none
attr recordingmode vector
attr source dataAge(packetReceived)
attr title "end-to-end delay"
attr unit s
vector 28 MixedWLAN.tcphost[1].app[0] packetSent:vector(packetBytes) ETV
attr interpolationmode none
attr recordingmode vector(packetBytes)
attr source packetSent
attr title "packets sent, packetBytes"
vector 29 MixedWLAN.tcphost[2].app[0] packetSent:vector(packetBytes) ETV
attr interpolationmode none
attr recordingmode vector(packetBytes)
attr source packetSent
attr title "packets sent, packetBytes"
vector 30 MixedWLAN.tcphost[0].app[0] packetSent:vector(packetBytes) ETV
attr interpolationmode none
attr recordingmode vector(packetBytes)
attr source packetSent
attr title "packets sent, packetBytes"
vector 31 MixedWLAN.tcphost[4].app[0] packetReceived:vector(packetBytes) ETV
attr interpolationmode none
attr recordingmode vector(packetBytes)
attr source packetReceived
attr title "packets received, packetBytes"
vector 32 MixedWLAN.tcphost[4].app[0] endToEndDelay:vector ETV
attr interpolationmode none
attr recordingmode vector
attr source dataAge(packetReceived)
attr title "end-to-end delay"
attr unit s
vector 33 MixedWLAN.tcphost[3].app[0] packetReceived:vector(packetBytes) ETV
attr interpolationmode none
attr recordingmode vector(packetBytes)
attr source packetReceived
attr title "packets received, packetBytes"
vector 34 MixedWLAN.tcphost[3].app[0] endToEndDelay:vector ETV
attr interpolationmode none
attr recordingmode vector
attr source dataAge(packetReceived)
attr title "end-to-end delay"
attr unit s
vector 35 MixedWLAN.tcphost[1].app[0] packetReceived:vector(packetBytes) ETV
attr interpolationmode none
attr recordingmode vector(packetBytes)
attr source packetReceived
attr title "packets received, packetBytes"
vector 36 MixedWLAN.tcphost[1].app[0] endToEndDelay:vector ETV
attr interpolationmode none
attr recordingmode vector
attr source dataAge(packetReceived)
attr title "end-to-end delay"
attr unit s
vector 37 MixedWLAN.tcphost[2].app[0] packetReceived:vector(packetBytes) ETV
attr interpolationmode none
attr recordingmode vector(packetBytes)
attr source packetReceived
attr title "packets received, packetBytes"
vector 38 MixedWLAN.tcphost[2].app[0] endToEndDelay:vector ETV
attr interpolationmode none
attr recordingmode vector
attr source dataAge(packetReceived)
attr title "end-to-end delay"
attr unit s
0	0	0	0
1	0	0	0
2	0	0	0
3	0	0	0
4	0	0	0
5	0	0	0
6	0	0	0
6	2	0	1
6	5182	0.02011549036	0
6	8748	0.0707619372	1
6	13322	0.08852022969	0
6	17818	0.136493581712	1
6	20521	0.147389132884	0
6	25827	0.194059270916	1
6	28593	0.205303974758	0
6	31799	0.245367925761	1
6	34795	0.256893516892	0
6	38874	0.299226093187	1
6	41560	0.309916610598	0
6	46856	0.354053508709	1
6	48455	0.36107440229	0
6	54446	0.401652370569	1
6	55449	0.406116868754	0
6	61594	0.452441045598	1
6	62602	0.457126910502	0
6	68742	0.497147189619	1
6	69753	0.501770054591	0
6	74729	0.540095562195	1
6	76675	0.54789857327	0
6	81978	0.594137985499	1
6	84710	0.605600600827	0
6	91404	0.654906932364	1
6	93905	0.66494458198	0
6	99066	0.706773440775	1
6	101354	0.715990036022	0
6	106364	0.756565424767	1
6	107384	0.761134289603	0
6	113501	0.799125306516	1
6	114506	0.803793171352	0
6	120207	0.846847525681	1
6	121648	0.852946200745	0
6	127106	0.894122823756	1
6	128794	0.901130534295	0
6	134801	0.94032153542	1
6	135946	0.945526766909	0
6	142137	0.986169062703	1
6	143156	0.990683927607	0
6	149323	1.038255821807	1
6	150332	1.042932686779	0
6	156090	1.081195886984	1
6	157430	1.087154510592	0
6	161792	1.125294322585	1
6	163371	1.131800633921	0
6	169364	1.179369144024	1
6	171507	1.188228717279	0
6	177875	1.232451955704	1
6	178870	1.23671482054	0
6	185023	1.281053393789	1
6	186046	1.286261258761	0
6	191325	1.326023565486	1
6	193168	1.333602469689	0
6	198120	1.373818207441	1
6	200261	1.382655487156	0
6	204790	1.4207693752	1
6	205771	1.425437240036	0
6	212025	1.470895685678	1
6	213938	1.478772025462	0
6	219242	1.52295552414	1
6	221722	1.533185083881	0
6	227337	1.578381735084	1
6	229036	1.585768249882	0
6	233676	1.62823749056	1
6	235762	1.637134648061	0
6	242080	1.683290045389	1
6	243378	1.689415315149	0
6	249662	1.736705272014	1
6	250655	1.741589136918	0
6	256863	1.784987622898	1
6	257844	1.789565487802	0
6	263966	1.830190378281	1
6	264986	1.834939243185	0
6	271108	1.874793271443	1
6	272129	1.879596136347	0
6	278239	1.920792429106	1
6	279254	1.92539729401	0
6	284655	1.966012633714	1
6	286384	1.972831487561	0
6	291935	2.019959707642	1
6	293534	2.027026267088	0
6	299683	2.074119565411	1
6	300698	2.079318430247	0
6	306831	2.124874563214	1
6	307836	2.12951542805	0
6	313288	2.167673276617	1
6	314977	2.174932366708	0
6	320328	2.220234641561	1
6	322122	2.227435580558	0
6	327150	2.271391672538	1
6	329786	2.282294437173	0
6	335447	2.324265032897	1
6	336470	2.329150683949	0
6	342476	2.372481715842	1
6	343652	2.377520429207	0
6	348189	2.416776025057	1
6	350380	2.426212871939	0
6	356031	2.47283189731	1
6	357994	2.481599514487	0
6	363181	2.520845691161	1
6	365138	2.529142550499	0
6	371331	2.571086845893	1
6	372342	2.575655710729	0
6	378511	2.621636033464	1
6	379528	2.626150898368	0
6	385627	2.666466442712	1
6	386633	2.671053307548	0
6	392775	2.714980997193	1
6	393794	2.719756862165	0
6	399921	2.764473675424	1
6	400940	2.768655540328	0
6	406523	2.807338323964	1
6	408066	2.813583633964	0
6	414227	2.858996192523	1
6	415251	2.863925057427	0
6	421367	2.905281969274	1
6	422378	2.91036383411	0
6	428561	2.957939071935	1
6	429564	2.962336936839	0
6	435663	3.002045997064	1
6	436677	3.0065068619	0
6	441209	3.045857568447	1
6	443635	3.055867897957	0
6	448287	3.098141543833	1
6	450121	3.105347033241	0
6	455471	3.15052050081	1
6	456452	3.154927365714	0
6	462563	3.193707960687	1
6	463579	3.198447825659	0
6	469496	3.240279082247	1
6	470699	3.245579429588	0
6	476851	3.29074964793	1
6	477866	3.295156512834	0
6	483190	3.334384411807	1
6	484993	3.342188334971	0
6	491163	3.388583426655	1
6	492188	3.393269291559	0
6	498297	3.437879465929	1
6	499316	3.442691330901	0
6	504821	3.482862129367	1
6	506437	3.489620684754	0
6	510995	3.527265461634	1
6	513062	3.535596876437	0
6	519637	3.583384368182	1
6	520738	3.588405422645	0
6	526084	3.628300821107	1
6	527885	3.636352128495	0
6	534031	3.679700643444	1
6	535041	3.68464750828	0
6	541026	3.726517807248	1
6	542182	3.731622770944	0
6	546660	3.771393826252	1
6	548660	3.779663368651	0
6	554204	3.831604986889	1
6	557062	3.842938232837	0
6	561027	3.885614815966	1
6	562929	3.893552377422	0
6	568217	3.937882818774	1
6	569303	3.942957869586	0
6	575365	3.982384347376	1
6	576346	3.98728621228	0
6	582513	4.033172500903	1
6	583494	4.037678365875	0
6	589703	4.085390760905	1
6	591343	4.092415663506	0
6	596851	4.131305651809	1
6	597832	4.136297516781	0
6	603976	4.174034705646	1
6	604980	4.178711570482	0
6	611125	4.216814133377	1
6	612147	4.221364998349	0
6	617319	4.260308139493	1
6	619265	4.268145376098	0
6	625406	4.313674707974	1
6	626430	4.318162572878	0
6	632028	4.358746918668	1
6	633564	4.365064415237	0
6	639722	4.411520840748	1
6	640744	4.416602705652	0
6	646907	4.462397815385	1
6	648468	4.468724887695	0
6	654045	4.509815984336	1
6	655163	4.514828035148	0
6	661189	4.560685559865	1
6	662206	4.565533424769	0
6	668345	4.611360892183	1
6	669354	4.616271757019	0
6	675521	4.663321405311	1
6	677608	4.672249748433	0
6	682794	4.715998196142	1
6	684487	4.723123101037	0
6	690400	4.771448285153	1
6	692915	4.781646306386	0
6	698496	4.828097299246	1
6	699891	4.834214591957	0
6	704516	4.875364396115	1
6	706463	4.883511339589	0
6	711512	4.93078295633	1
6	714322	4.942161298785	0
6	720462	4.991950015745	1
6	721477	4.996599880649	0
6	727612	5.037258165598	1
6	728631	5.041809030502	0
6	734772	5.085007365821	1
6	735795	5.089468230725	0
6	741906	5.131365338476	1
6	742921	5.136015203312	0
6	749064	5.177984195426	1
6	750081	5.182472060398	0
6	756237	5.229693638704	1
6	757251	5.234568503676	0
6	763356	5.277381397562	1
6	764378	5.282274262398	0
6	770193	5.325093409834	1
6	771501	5.331204605785	0
6	777243	5.376028174334	1
6	778651	5.382011800381	0
6	784810	5.427022725147	1
6	785835	5.432086589983	0
6	791962	5.478475666592	1
6	792983	5.483089531428	0
6	799097	5.524079415767	1
6	800112	5.528495280671	0
6	806181	5.57079591251	1
6	807283	5.575951852821	0
6	813449	5.622803149938	1
6	814470	5.627570014842	0
6	820595	5.671257491654	1
6	821618	5.676213356626	0
6	827724	5.720599986863	1
6	828745	5.725249851767	0
6	834653	5.766427790605	1
6	835872	5.771891878519	0
6	841464	5.81060134936	1
6	843023	5.817855796277	0
6	849208	5.864060071294	1
6	850221	5.86868293613	0
6	856362	5.914747003073	1
6	857391	5.919522867977	0
6	862255	5.958247101263	1
6	864497	5.9673149596	0
6	869388	6.012932860712	1
6	871643	6.021995776168	0
6	877566	6.068471024295	1
6	878795	6.073617003751	0
6	883790	6.118943309593	1
6	886052	6.128040428478	0
6	891905	6.175770657926	1
6	893360	6.18157058575	0
6	899324	6.225755377153	1
6	900933	6.232637625936	0
6	906504	6.275472284998	1
6	907936	6.281486918129	0
6	913671	6.328512344179	1
6	915084	6.334760943208	0
6	920840	6.376233750242	1
6	921821	6.380757615146	0
6	927988	6.428190068677	1
6	929567	6.434757376518	0
6	935177	6.475131792544	1
6	936158	6.47992565738	0
6	942325	6.52350664396	1
6	943306	6.528084508932	0
6	949514	6.570058140244	1
6	950495	6.574969005216	0
6	956612	6.613772011259	1
6	957635	6.618583876231	0
6	963774	6.664835770038	1
6	964791	6.669944634874	0
6	970944	6.714381890952	1
6	971939	6.718995755924	0
6	978106	6.765085171352	1
6	979139	6.769988218028	0
6	985254	6.817340355305	1
6	986235	6.822107220209	0
6	992444	6.866703420851	1
6	993425	6.871776285823	0
6	999592	6.914602912942	1
6	1000573	6.918964777914	0
6	1006730	6.964341510211	1
6	1007721	6.969216375183	0
6	1013850	7.013237271303	1
6	1014869	7.017941136207	0
6	1020978	7.06237932939	1
6	1022003	7.067137194294	0
6	1027657	7.107218633075	1
6	1029114	7.11343067791	0
6	1034893	7.15234330562	1
6	1036266	7.158489034909	0
6	1040934	7.19960693209	1
6	1043187	7.208745392432	0
6	1048667	7.25218863007	1
6	1050596	7.260294088316	0
6	1056049	7.306774215334	1
6	1057790	7.314525057654	0
6	1062325	7.355077155027	1
6	1064414	7.364123461343	0
6	1069803	7.40779901089	1
6	1072006	7.417055645317	0
6	1077695	7.460090599097	1
6	1079376	7.467699459194	0
6	1085571	7.51527502828	1
6	1086558	7.519717893252	0
6	1092725	7.564848169962	1
6	1093706	7.569597034866	0
6	1099873	7.611147005204	1
6	1100854	7.615805870108	0
6	1107021	7.660563052243	1
6	1108002	7.665788917147	0
6	1114169	7.70740246305	1
6	1115150	7.712142327886	0
6	1121293	7.751285327603	1
6	1122298	7.755278192575	0
6	1128377	7.793803089205	1
6	1129402	7.798581569247	0
6	1133304	7.836940603552	1
6	1136063	7.847646844008	0
6	1140914	7.89118909512	1
6	1141934	7.895352960092	0
6	1148088	7.940484692383	1
6	1149155	7.945387703607	0
6	1155254	7.993463679318	1
6	1157202	8.001387105938	0
6	1162460	8.042819498988	1
6	1164093	8.050225359171	0
6	1169649	8.101937715931	1
6	1172354	8.112938141823	0
6	1177196	8.164291444701	1
6	1180425	8.177214187311	0
6	1185144	8.222156091026	1
6	1186833	8.229977720189	0
6	1192876	8.275370597038	1
6	1194020	8.280580787173	0
6	1200168	8.325539396111	1
6	1201181	8.329820260947	0
6	1207227	8.373851985485	1
6	1208320	8.378891225907	0
6	1214285	8.419202431539	1
6	1215464	8.424618626643	0
6	1221617	8.471211975109	1
6	1222636	8.475582839945	0
6	1228519	8.513561469856	1
6	1229765	8.519283386288	0
6	1235924	8.56370677558	1
6	1236941	8.568140640484	0
6	1243078	8.615703894088	1
6	1244099	8.620605758924	0
6	1249455	8.660329218074	1
6	1251207	8.667979694404	0
6	1255852	8.707347451653	1
6	1258233	8.717206417828	0
6	1263842	8.760989186732	1
6	1265539	8.768236268931	0
6	1271621	8.813936956423	1
6	1272695	8.819182292012	0
6	1278838	8.86215885631	1
6	1279847	8.866808721214	0
6	1284895	8.906926407868	1
6	1287065	8.915903890334	0
6	1292166	8.959882615127	1
6	1294163	8.968396096398	0
6	1300365	9.013312277943	1
6	1301384	9.018223142779	0
6	1307247	9.061329303725	1
6	1308516	9.067034587866	0
6	1314209	9.114216983524	1
6	1315701	9.120461859632	0
6	1320493	9.163418439029	1
6	1322581	9.171765961774	0
6	1327382	9.215004567492	1
6	1329474	9.223673177964	0
6	1334507	9.269939652603	1
6	1336630	9.279073337376	0
6	1342422	9.324393021955	1
6	1344371	9.332353442235	0
6	1350527	9.379081140239	1
6	1351543	9.383740005143	0
6	1357733	9.43047099307	1
6	1359992	9.439800842654	0
6	1364883	9.481577181643	1
6	1366330	9.487862331973	0
6	1372063	9.527735916624	1
6	1373062	9.532538781528	0
6	1379248	9.578947355753	1
6	1380252	9.583570220657	0
6	1386417	9.627126000398	1
6	1387400	9.63192886537	0
6	1393499	9.669604494425	1
6	1394517	9.674326359329	0
6	1400667	9.720977782158	1
6	1401692	9.72602364713	0
6	1407856	9.771315736924	1
6	1408871	9.775461601896	0
6	1414160	9.813363236463	1
6	1416063	9.821120217375	0
6	1421281	9.865457765222	1
6	1423254	9.873485071647	0
6	1428384	9.920517034758	1
6	1430398	9.92845076946	0
6	1433539	9.967672568758	1
6	1436481	9.979069633214	0
7	0	0	0
8	0	0	0
9	0	0	0
10	0	0	0
10	3	0	1
10	5915	0.022769866951	0
10	8753	0.070763596716	1
10	12583	0.085770102943	0
10	18363	0.13876317859	1
10	20723	0.148398248708	0
10	24772	0.189906000121	1
10	26812	0.198005410046	0
10	31860	0.245552878244	1
10	35311	0.258811888556	0
10	40417	0.305570224797	1
10	42924	0.315402885106	0
10	48078	0.359461825335	1
10	50391	0.368633295631	0
10	56241	0.412509277087	1
10	57733	0.418938326487	0
10	63239	0.459980383078	1
10	64382	0.465084155364	0
10	70553	0.510070855257	1
10	71579	0.514693339847	0
10	77673	0.554338990738	1
10	78696	0.558853475328	0
10	82751	0.597344557715	1
10	85702	0.609760349779	0
10	90234	0.649825118556	1
10	91249	0.654276610232	0
10	97479	0.699662117655	1
10	98465	0.704257602245	0
10	104634	0.745433910235	1
10	105613	0.749975394825	0
10	111782	0.790750288732	1
10	112761	0.795579773322	0
10	118930	0.840339293127	1
10	119909	0.845429777717	0
10	126078	0.889153564529	1
10	127057	0.893884049119	0
10	133216	0.933198951229	1
10	134205	0.937569428733	0
10	140356	0.976040676638	1
10	141375	0.980438154142	0
10	147168	1.022268388967	1
10	148493	1.028126468692	0
10	153204	1.069431108645	1
10	155374	1.07832969683	0
10	162078	1.12657174985	1
10	164412	1.136117559537	0
10	168996	1.177946780039	1
10	170646	1.184926072901	0
10	176133	1.22508585518	1
10	177135	1.22954633977	0
10	183284	1.27127734304	1
10	184283	1.27586382763	0
10	190452	1.321688367239	1
10	191583	1.327033976227	0
10	197600	1.371192535818	1
10	198883	1.376958490962	0
10	206020	1.426349120139	1
10	207504	1.432449534342	0
10	211938	1.47062037499	1
10	213828	1.478406847422	0
10	219128	1.522496061905	1
10	220719	1.529060275659	0
10	226318	1.573738660113	1
10	227297	1.578163137617	0
10	233466	1.627470781439	1
10	235204	1.634928161949	0
10	240614	1.676339551599	1
10	241593	1.681160036189	0
10	247887	1.720222470518	1
10	248866	1.724772962194	0
10	255048	1.767066078218	1
10	256055	1.771175562808	0
10	262212	1.817576520047	1
10	263203	1.822370004637	0
10	269310	1.86267886392	1
10	270329	1.867571341424	0
10	276460	1.911768541018	1
10	277480	1.916085025608	0
10	283600	1.960881391993	1
10	284612	1.965809876583	0
10	290780	2.014869308732	1
10	291795	2.019482793322	0
10	297925	2.065401814374	1
10	298941	2.069907298964	0
10	305069	2.116707479293	1
10	306087	2.121383970969	0
10	312233	2.162838244426	1
10	313239	2.16736172193	0
10	319402	2.215971670212	1
10	320439	2.220694239612	0
10	326556	2.268720424111	1
10	327932	2.274619480965	0
10	333746	2.316750858481	1
10	334725	2.321139343071	0
10	340936	2.365669598019	1
10	341915	2.370229075523	0
10	348084	2.416185901578	1
10	349880	2.424096493189	0
10	355232	2.468889728343	1
10	356263	2.473846297743	0
10	362422	2.517255072983	1
10	363506	2.522194918663	0
10	369612	2.562213371444	1
10	370591	2.566763848948	0
10	376758	2.60788909926	1
10	377739	2.61231358385	0
10	383888	2.658014448951	1
10	384887	2.662690940627	0
10	390984	2.705024628791	1
10	392009	2.709872120467	0
10	397286	2.751367608616	1
10	399132	2.759051363882	0
10	404590	2.799289361227	1
10	406281	2.806332847921	0
10	412419	2.84804689904	1
10	413438	2.85260638363	0
10	419612	2.896892014843	1
10	420627	2.901487499433	0
10	426736	2.942224065528	1
10	427755	2.947035550118	0
10	433860	2.992390904713	1
10	434885	2.997283389303	0
10	441040	3.044978849199	1
10	442723	3.052195065723	0
10	448339	3.098267314958	1
10	450468	3.106737449991	0
10	456519	3.155229736364	1
10	458185	3.162515621816	0
10	464338	3.202361597663	1
10	465345	3.207155075167	0
10	471510	3.253980553572	1
10	472531	3.258549038162	0
10	478666	3.304490452452	1
10	479681	3.309301929956	0
10	485810	3.35094402056	1
10	486829	3.35611550515	0
10	492968	3.403242092737	1
10	493977	3.407990577327	0
10	500126	3.453832694744	1
10	501125	3.458077172248	0
10	507294	3.503327609053	1
10	508273	3.507878086557	0
10	514438	3.550438685961	1
10	515421	3.555061170551	0
10	521562	3.598529245955	1
10	522569	3.603484723459	0
10	528688	3.64359280531	1
10	529708	3.648548282814	0
10	535832	3.691296065825	1
10	536846	3.695891543329	0
10	542948	3.735282643221	1
10	543964	3.739293127811	0
10	548319	3.778273879046	1
10	551193	3.790369193712	0
10	554681	3.83361053081	1
10	558691	3.849311359505	0
10	562624	3.892499474742	1
10	566725	3.908140716163	0
10	572153	3.954364863204	1
10	574240	3.962930508883	0
10	580269	4.005750474758	1
10	581659	4.011756743793	0
10	586998	4.052470984316	1
10	588841	4.059880389934	0
10	593081	4.099492844573	1
10	595101	4.107757951668	0
10	600357	4.151651686658	1
10	601375	4.156148178334	0
10	607531	4.199012521494	1
10	608704	4.203980264919	0
10	614761	4.248217031291	1
10	615742	4.252641515881	0
10	621894	4.296782299039	1
10	622890	4.301728783629	0
10	629059	4.345380873962	1
10	630038	4.349958365638	0
10	636205	4.388420497567	1
10	637186	4.393033982157	0
10	643330	4.434428365755	1
10	644334	4.439257857431	0
10	650462	4.482534421048	1
10	651475	4.486409905638	0
10	657636	4.533322388981	1
10	658630	4.537962866485	0
10	664737	4.579904930378	1
10	665758	4.584617414968	0
10	671869	4.628423417285	1
10	672890	4.632973908961	0
10	677655	4.672370268105	1
10	680146	4.682748196765	0
10	685957	4.729234508654	1
10	687295	4.735040258328	0
10	691822	4.777347458752	1
10	695161	4.790866992056	0
10	700409	4.836391687047	1
10	701831	4.842085178309	0
10	706391	4.883265490585	1
10	709333	4.894696335889	0
10	712416	4.934572149985	1
10	716612	4.950908932531	0
10	721889	4.99824200507	1
10	723927	5.00672887056	0
10	730291	5.055333210537	1
10	732181	5.06355104113	0
10	738338	5.108730381681	1
10	739358	5.113253873357	0
10	745534	5.156791988539	1
10	746527	5.161243466043	0
10	752696	5.206982926735	1
10	753675	5.211857404239	0
10	759844	5.259066459709	1
10	760823	5.263625944299	0
10	766992	5.310999526705	1
10	767971	5.315622018381	0
10	774140	5.359525472311	1
10	775119	5.364417956901	0
10	781288	5.402822217906	1
10	782267	5.407165702496	0
10	788376	5.447020784121	1
10	789395	5.451751268711	0
10	794594	5.490683044708	1
10	796512	5.498834544627	0
10	801733	5.538520666496	1
10	803699	5.546468366857	0
10	809755	5.592392473803	1
10	810854	5.597547859223	0
10	816194	5.639733677334	1
10	817999	5.647609077183	0
10	824060	5.694409870583	1
10	825152	5.699511395038	0
10	830539	5.740282628804	1
10	832293	5.747763747526	0
10	838445	5.79292254755	1
10	839449	5.797617494683	0
10	844835	5.840041963223	1
10	846636	5.848068148739	0
10	852479	5.895579192929	1
10	854306	5.903196280805	0
10	860654	5.951915949039	1
10	862813	5.960493571912	0
10	867840	6.006704093123	1
10	870225	6.016154524356	0
10	875053	6.058063918962	1
10	877007	6.066217616131	0
10	882564	6.113571226262	1
10	884633	6.122472106418	0
10	890328	6.168490293505	1
10	891347	6.173130771009	0
10	897523	6.211262030764	1
10	898540	6.215848508268	0
10	904748	6.261969054401	1
10	905736	6.266564546077	0
10	911897	6.313128201283	1
10	912884	6.317660685873	0
10	918985	6.355832246589	1
10	920002	6.360436724093	0
10	926138	6.407958496644	1
10	927154	6.412859981234	0
10	933330	6.453407554839	1
10	934352	6.458390046515	0
10	940092	6.497718409564	1
10	941470	6.503816201199	0
10	946062	6.542412192123	1
10	948289	6.551616628431	0
10	954466	6.600190421639	1
10	955810	6.606348612294	0
10	961755	6.650173595624	1
10	962956	6.655635480344	0
10	969111	6.698190790408	1
10	970126	6.702570274998	0
10	976285	6.746221907722	1
10	977298	6.751024392312	0
10	983401	6.789904031475	1
10	984425	6.794724508979	0
10	989861	6.837111137441	1
10	991586	6.844662338952	0
10	995493	6.883715441317	1
10	997996	6.893560419372	0
10	1002677	6.938897684079	1
10	1004569	6.947051730568	0
10	1010939	6.99544924503	1
10	1013028	7.004206666259	0
10	1018928	7.050226804369	1
10	1020178	7.055441064588	0
10	1025830	7.099735935009	1
10	1027322	7.1060223721	0
10	1033426	7.145632012664	1
10	1034478	7.150558648741	0
10	1040639	7.19817139871	1
10	1042371	7.20557766756	0
10	1047840	7.248623025454	1
10	1048960	7.253310654206	0
10	1055028	7.302167080926	1
10	1056009	7.306681572602	0
10	1062220	7.354713552397	1
10	1064063	7.362568161769	0
10	1069410	7.406012533027	1
10	1071001	7.412783777811	0
10	1076600	7.454767302252	1
10	1077579	7.459425786842	0
10	1083790	7.498161907268	1
10	1084769	7.502595391858	0
10	1090900	7.544160522004	1
10	1091915	7.54867501368	0
10	1098008	7.590412519681	1
10	1099026	7.594476997185	0
10	1104414	7.633390150605	1
10	1106157	7.640573927854	0
10	1110485	7.68051220627	1
10	1112309	7.688073621135	0
10	1117675	7.728869146899	1
10	1118784	7.733700810311	0
10	1124835	7.778439624149	1
10	1126012	7.783452291212	0
10	1132039	7.831654643647	1
10	1133380	7.837232796344	0
10	1139187	7.880045050213	1
10	1140166	7.884919527717	0
10	1146335	7.926173981077	1
10	1147314	7.931093465667	0
10	1153483	7.976940797698	1
10	1154462	7.981851289374	0
10	1160627	8.019940073661	1
10	1161646	8.024355551165	0
10	1167188	8.062246522291	1
10	1168785	8.068702600235	0
10	1170971	8.10752121921	1
10	1175812	8.126276659011	0
10	1178855	8.171332701084	1
10	1182520	8.185199625648	0
10	1186854	8.230032694406	1
10	1189809	8.241516027577	0
10	1194610	8.283084042233	1
10	1195912	8.288458035531	0
10	1201955	8.334327244561	1
10	1202966	8.338832722065	0
10	1209089	8.382719080648	1
10	1210110	8.387503565238	0
10	1216234	8.428114260017	1
10	1217252	8.432817744607	0
10	1223399	8.478775622411	1
10	1224399	8.483560107001	0
10	1230568	8.526910599726	1
10	1231585	8.53152407723	0
10	1237721	8.576687736969	1
10	1238739	8.581112214473	0
10	1244861	8.627775354745	1
10	1246034	8.632855552111	0
10	1251999	8.674105017232	1
10	1253017	8.678889508908	0
10	1258206	8.717047870764	1
10	1260172	8.7251031127	0
10	1266214	8.771282005861	1
10	1267329	8.776175533557	0
10	1272838	8.819764356965	1
10	1274474	8.826617611734	0
10	1280633	8.87304413633	1
10	1282431	8.880285774538	0
10	1287968	8.927201000608	1
10	1290116	8.93624328453	0
10	1295072	8.983075743558	1
10	1296663	8.989991281706	0
10	1302220	9.038868647464	1
10	1304218	9.047038514691	0
10	1309368	9.094148958484	1
10	1310905	9.100646325187	0
10	1316558	9.147195588249	1
10	1318149	9.154074930505	0
10	1323706	9.195371611676	1
10	1325096	9.201889803208	0
10	1330854	9.247605395696	1
10	1331985	9.252492066194	0
10	1337985	9.29241373021	1
10	1338981	9.297387207714	0
10	1345156	9.337394831247	1
10	1346184	9.342413308751	0
10	1352152	9.386336430826	1
10	1353313	9.391402066664	0
10	1357852	9.431121442345	1
10	1359539	9.437955463972	0
10	1365402	9.483917555377	1
10	1367393	9.492184340853	0
10	1373432	9.534165095236	1
10	1375153	9.541415683075	0
10	1380851	9.586089271261	1
10	1383614	9.597674693593	0
10	1388282	9.63935018032	1
10	1390757	9.649502205278	0
10	1397073	9.696441344723	1
10	1398072	9.701285386843	0
10	1403114	9.743210694552	1
10	1405259	9.752473723152	0
10	1409752	9.795189768388	1
10	1412814	9.807931327965	0
10	1417036	9.848226757911	1
10	1419169	9.856804687128	0
10	1424522	9.904295893723	1
10	1426662	9.913198005254	0
10	1431971	9.961137073775	1
10	1434395	9.97108808717	0
11	0	0	0
12	0	0	0
13	0	0	0
14	0	0	0
14	4	0	1
14	4242	0.016360556124	0
14	8047	0.067875392704	1
14	11500	0.081616489957	0
14	16298	0.129825506292	1
14	17802	0.136465122036	0
14	24032	0.18654712027	1
14	25480	0.192723857257	0
14	31224	0.242439782902	1
14	32988	0.249824509365	0
14	38389	0.296830213326	1
14	39785	0.303106137346	0
14	45579	0.347958929977	1
14	46564	0.352717239739	0
14	52727	0.393724413862	1
14	53712	0.398059732823	0
14	59875	0.443996470933	1
14	60860	0.448664799093	0
14	67023	0.487690886296	1
14	68008	0.492593205257	0
14	74171	0.537343754987	1
14	75614	0.543746823101	0
14	81319	0.590905368813	1
14	82561	0.596623253245	0
14	88509	0.638994161802	1
14	89494	0.643833480763	0
14	95699	0.68223778384	1
14	96684	0.687212102801	0
14	102795	0.726182851831	1
14	103830	0.731193179991	0
14	109912	0.772616670878	1
14	110940	0.777329999038	0
14	117075	0.820643814094	1
14	118092	0.825591142254	0
14	124223	0.868613615389	1
14	125238	0.87347093435	0
14	131121	0.915729645055	1
14	132375	0.92123702546	0
14	138076	0.962811740792	1
14	139564	0.969345975657	0
14	145130	1.013952468132	1
14	146710	1.020438993683	0
14	152857	1.067722492212	1
14	154514	1.074836381643	0
14	160031	1.117090018703	1
14	161058	1.121668328465	0
14	167173	1.161577386178	1
14	168200	1.166137714338	0
14	174324	1.209842292735	1
14	175348	1.214420611696	0
14	181459	1.255594946366	1
14	182486	1.260263256128	0
14	188453	1.300270200318	1
14	189603	1.305715010258	0
14	193996	1.343526035947	1
14	195875	1.351067044799	0
14	201156	1.394135148053	1
14	202617	1.400340194612	0
14	208332	1.442118617425	1
14	209349	1.446696927187	0
14	215522	1.491341566239	1
14	216644	1.496624071108	0
14	222422	1.535959718207	1
14	223677	1.54130735336	0
14	229048	1.585771760899	1
14	231137	1.593916280917	0
14	237313	1.643153913	1
14	239124	1.650326737247	0
14	244146	1.69288033861	1
14	246151	1.700653965744	0
14	252570	1.749708563877	1
14	254226	1.756885928797	0
14	259189	1.796533064323	1
14	261369	1.805520496882	0
14	267517	1.851877123621	1
14	268544	1.856797451781	0
14	273285	1.895268798145	1
14	275097	1.902611773915	0
14	281813	1.951922386554	1
14	282828	1.956491705515	0
14	288808	2.000326471004	1
14	289968	2.005755089788	0
14	296110	2.05188100538	1
14	297135	2.056729324341	0
14	303297	2.103579644022	1
14	304310	2.108427953784	0
14	310439	2.148167349578	1
14	311458	2.15265565934	0
14	317607	2.198805584367	1
14	318606	2.203302912527	0
14	324724	2.24417022409	1
14	325750	2.248469543051	0
14	331913	2.295810494847	1
14	332944	2.300532813808	0
14	338150	2.338660463392	1
14	340083	2.346535847686	0
14	344456	2.384904212722	1
14	346107	2.39188357397	0
14	351616	2.436555338621	1
14	352795	2.441703532995	0
14	358767	2.485481141794	1
14	359849	2.490726953493	0
14	365934	2.535388021525	1
14	367588	2.541728403963	0
14	373125	2.581975282065	1
14	374156	2.587066591827	0
14	380292	2.634484274869	1
14	381319	2.639323584631	0
14	387482	2.688058212935	1
14	389378	2.696161351121	0
14	394630	2.739844033283	1
14	395615	2.744314361443	0
14	401778	2.783291416264	1
14	402763	2.787842726026	0
14	408926	2.831478590346	1
14	409911	2.836281909307	0
14	416054	2.875125454804	1
14	417059	2.879892782964	0
14	423218	2.923289699234	1
14	424207	2.928282008996	0
14	430370	2.976003668624	1
14	431407	2.981281428232	0
14	437518	3.026020226606	1
14	438807	3.031742346659	0
14	444749	3.074691673772	1
14	445734	3.079449983534	0
14	451897	3.125082713348	1
14	452987	3.130059227416	0
14	458993	3.16971442714	1
14	460012	3.173914736902	0
14	466171	3.217959392844	1
14	467178	3.223068702606	0
14	473295	3.266704501663	1
14	474320	3.271048820624	0
14	480024	3.310707180751	1
14	481427	3.316953803214	0
14	487597	3.364785467229	1
14	488622	3.369858776991	0
14	494719	3.413472513093	1
14	495746	3.418554832054	0
14	501867	3.464016261029	1
14	502897	3.46899957999	0
14	509015	3.513499230091	1
14	510037	3.517879558251	0
14	516171	3.561641014618	1
14	517195	3.566282333579	0
14	523109	3.605627166702	1
14	524316	3.611199760091	0
14	530116	3.650239848585	1
14	531466	3.656569220898	0
14	537605	3.700431718958	1
14	538622	3.705127037919	0
14	544758	3.745762199839	1
14	545790	3.750565509601	0
14	551995	3.796991363752	1
14	553018	3.801596682713	0
14	556496	3.840635819821	1
14	560169	3.855177072239	0
14	562752	3.892947388434	1
14	566466	3.90724748965	0
14	571380	3.951348684856	1
14	573404	3.959429396137	0
14	578861	3.99923873044	1
14	579888	4.004177040202	0
14	585213	4.04538911348	1
14	587067	4.052696679393	0
14	593450	4.101097307605	1
14	595420	4.10897635784	0
14	601361	4.15613531535	1
14	603144	4.163332331485	0
14	608377	4.202623390514	1
14	610331	4.210732499676	0
14	616482	4.256382548273	1
14	617601	4.261431011328	0
14	622930	4.301897841431	1
14	624633	4.308957828939	0
14	630234	4.350805358118	1
14	631782	4.357556345808	0
14	637945	4.400544110683	1
14	638971	4.405329438843	0
14	645094	4.446752416923	1
14	646120	4.451636726685	0
14	652249	4.495246077176	1
14	653275	4.500112405336	0
14	659404	4.547283180767	1
14	660423	4.551456499728	0
14	666575	4.596731004034	1
14	667571	4.601219322995	0
14	673706	4.643135075933	1
14	674719	4.647749385695	0
14	680916	4.685705616745	1
14	681945	4.690498995163	0
14	687422	4.735516190582	1
14	689092	4.742809271272	0
14	693064	4.782096069587	1
14	696161	4.79484707693	0
14	701294	4.83993258643	1
14	703509	4.849119352514	0
14	707777	4.888688627499	1
14	710654	4.900217691703	0
14	713902	4.9406277182	1
14	717674	4.955100980066	0
14	722553	5.000910475815	1
14	724770	5.00987891153	0
14	729433	5.051482624645	1
14	730502	5.056223985964	0
14	736570	5.097893456078	1
14	737596	5.102417784238	0
14	743693	5.140158269941	1
14	744708	5.144880588902	0
14	750841	5.187685038666	1
14	751864	5.192263357627	0
14	757992	5.240060481348	1
14	759016	5.245016800309	0
14	765137	5.286359187815	1
14	766150	5.290784497577	0
14	772287	5.336558955199	1
14	773308	5.34111027416	0
14	778625	5.38186487466	1
14	780436	5.389276916619	0
14	786581	5.436083638337	1
14	787593	5.440724957298	0
14	793660	5.48641383434	1
14	794792	5.491525642957	0
14	800884	5.534839952417	1
14	802015	5.539582346238	0
14	808093	5.584597867038	1
14	809118	5.5893651768	0
14	815236	5.635522788778	1
14	816313	5.640228140898	0
14	822407	5.686804570679	1
14	823415	5.691427898839	0
14	829555	5.735992797585	1
14	830568	5.740373125745	0
14	836719	5.784361616632	1
14	837711	5.789461926394	0
14	843874	5.835125792874	1
14	844864	5.840163111835	0
14	851063	5.889113270711	1
14	852048	5.893691589672	0
14	858211	5.940638745337	1
14	859196	5.945307055099	0
14	865359	5.983814593925	1
14	866344	5.988491903687	0
14	872507	6.036123853148	1
14	873492	6.040657172109	0
14	879613	6.082202081249	1
14	880634	6.08633940021	0
14	885662	6.126416122465	1
14	887733	6.134763832477	0
14	892554	6.178489472825	1
14	894924	6.188230719961	0
14	899600	6.226903281684	1
14	901955	6.236855907037	0
14	907048	6.278015855463	1
14	909260	6.287118003964	0
14	914101	6.330532801755	1
14	916410	6.340301941163	0
14	922559	6.385273504406	1
14	923576	6.389914814168	0
14	928198	6.429013004392	1
14	930585	6.438858837739	0
14	936896	6.484221604955	1
14	938543	6.491183019679	0
14	944044	6.533402276361	1
14	945069	6.538178586123	0
14	950912	6.576747564542	1
14	952239	6.582603390986	0
14	958381	6.622731662045	1
14	959397	6.627543971807	0
14	965125	6.671562884807	1
14	966538	6.678013808827	0
14	972677	6.7229942221	1
14	973694	6.728166531862	0
14	978923	6.769016472891	1
14	981296	6.778618452268	0
14	987086	6.825844795494	1
14	989640	6.83618010886	0
14	995067	6.881969000892	1
14	997892	6.893213264949	0
14	1003717	6.943562906642	1
14	1005882	6.952141004436	0
14	1010254	6.992246381386	1
14	1011703	6.998531078155	0
14	1017462	7.043382049122	1
14	1018447	7.048113377282	0
14	1024610	7.094134573678	1
14	1025595	7.098802901838	0
14	1031740	7.13766281021	1
14	1032743	7.142556129171	0
14	1038900	7.186739814677	1
14	1039891	7.191183124439	0
14	1046095	7.235509877346	1
14	1047080	7.240421205506	0
14	1053220	7.284415943142	1
14	1054228	7.289300252904	0
14	1060386	7.330233437044	1
14	1061410	7.335207765204	0
14	1067338	7.37653911671	1
14	1068564	7.382058932415	0
14	1074727	7.428853548853	1
14	1075754	7.433332858615	0
14	1080977	7.474289811089	1
14	1082935	7.482460757184	0
14	1088384	7.527883633596	1
14	1090087	7.535301468028	0
14	1094444	7.573811586693	1
14	1095882	7.580078739984	0
14	1101594	7.621365845576	1
14	1102992	7.627854001716	0
14	1108756	7.672378144786	1
14	1109778	7.677325454548	0
14	1115912	7.720379179917	1
14	1116941	7.725515489679	0
14	1123090	7.767146198403	1
14	1124089	7.771535517364	0
14	1130252	7.813137612113	1
14	1131237	7.817679931074	0
14	1137352	7.857415195497	1
14	1138381	7.862173523657	0
14	1144363	7.905494153135	1
14	1145487	7.910864250373	0
14	1150978	7.95321415807	1
14	1152632	7.96014222451	0
14	1157451	8.002413880755	1
14	1159813	8.011817828009	0
14	1164278	8.050919077139	1
14	1167000	8.06152763304	0
14	1169959	8.10322705373	1
14	1173406	8.117060367847	0
14	1176839	8.16275430326	1
14	1178523	8.170059594644	0
14	1184069	8.216718130198	1
14	1185054	8.22165643996	0
14	1191301	8.268278398851	1
14	1192286	8.272793717812	0
14	1198449	8.31586165567	1
14	1199434	8.32052998383	0
14	1205597	8.366228810535	1
14	1206582	8.370942129496	0
14	1212745	8.412370202072	1
14	1213730	8.416714530232	0
14	1219893	8.460538527856	1
14	1220878	8.465107846817	0
14	1227012	8.506584920646	1
14	1228026	8.511307239607	0
14	1234161	8.551739996566	1
14	1235174	8.556759315527	0
14	1241309	8.603393962832	1
14	1242322	8.608017281793	0
14	1248485	8.655262990708	1
14	1249475	8.66039030047	0
14	1255633	8.706110694852	1
14	1257270	8.713315944738	0
14	1262823	8.756356682159	1
14	1263808	8.76087200112	0
14	1269971	8.806367049213	1
14	1270956	8.810999368174	0
14	1277119	8.853172312179	1
14	1278104	8.857984621941	0
14	1284309	8.903938936677	1
14	1285504	8.909448716535	0
14	1291498	8.956517259597	1
14	1292941	8.963109203498	0
14	1298610	9.00388180131	1
14	1299631	9.00839712947	0
14	1305707	9.054138211535	1
14	1306745	9.059193539695	0
14	1311470	9.102985140331	1
14	1313913	9.112882280771	0
14	1319469	9.159104456337	1
14	1321699	9.168227625367	0
14	1327223	9.21432504282	1
14	1329082	9.222053457176	0
14	1334400	9.269665211431	1
14	1336172	9.277267577	0
14	1341576	9.320684758436	1
14	1342606	9.325276068198	0
14	1348808	9.369420686857	1
14	1349793	9.374161005818	0
14	1355926	9.414147909263	1
14	1356941	9.418420228224	0
14	1363104	9.463945090598	1
14	1364089	9.468928409559	0
14	1370271	9.511484443477	1
14	1371279	9.516530762438	0
14	1377484	9.563898736509	1
14	1378469	9.568225046271	0
14	1384612	9.609293285415	1
14	1385617	9.614285613575	0
14	1391747	9.659757549587	1
14	1392765	9.664605868548	0
14	1398878	9.708518984661	1
14	1399903	9.713403312821	0
14	1406056	9.758943035684	1
14	1407086	9.763710354645	0
14	1411822	9.803796099162	1
14	1414290	9.81381872376	0
14	1419456	9.85788543504	1
14	1421534	9.866359484018	0
14	1427207	9.915302000447	1
14	1428776	9.922043426171	0
14	1434534	9.971567247185	1
14	1437272	9.982299642326	0
15	0	0	0
16	0	0	0
17	0	0	0
18	0	0	0
18	5	0	1
18	3884	0.015051943291	0
18	7886	0.06709488008	1
18	10552	0.078067453689	0
18	15076	0.123937595938	1
18	16059	0.128776711386	0
18	22306	0.175696743837	1
18	23289	0.180310823348	0
18	29454	0.226076315631	1
18	30437	0.231050359205	0
18	36578	0.271180485135	1
18	37585	0.275641600583	0
18	43678	0.318331559154	1
18	44725	0.323036347368	0
18	49537	0.365151652665	1
18	51869	0.374889715196	0
18	56754	0.414762651024	1
18	59017	0.424081562826	0
18	64529	0.465576213174	1
18	66164	0.472141989103	0
18	71565	0.514664890832	1
18	73321	0.522588205586	0
18	79465	0.564401099457	1
18	80489	0.569267214905	0
18	86560	0.613366131568	1
18	87659	0.618430999226	0
18	92295	0.658374663062	1
18	94167	0.666036102415	0
18	99005	0.706577489817	1
18	101145	0.715118659681	0
18	107987	0.763518572928	1
18	109140	0.768588218886	0
18	115310	0.811612922772	1
18	116335	0.816407002283	0
18	122445	0.859639505528	1
18	123471	0.864505549102	0
18	129603	0.908934636483	1
18	130628	0.913692751931	0
18	136787	0.957282639118	1
18	137783	0.961689718629	0
18	143990	1.008568083653	1
18	144973	1.013299199101	0
18	151138	1.057725351655	1
18	152121	1.062456431166	0
18	158286	1.104034676137	1
18	159269	1.108594791585	0
18	165428	1.149239224362	1
18	166417	1.153853267936	0
18	172534	1.197037923277	1
18	173561	1.201805002788	0
18	179678	1.24431003201	1
18	180703	1.248807075584	0
18	186826	1.293187560487	1
18	187844	1.297666639998	0
18	194216	1.344456053923	1
18	196222	1.352577616113	0
18	201641	1.396216909775	1
18	203934	1.406129059477	0
18	209715	1.448212433014	1
18	211081	1.454106086573	0
18	216313	1.495181734246	1
18	218274	1.503572770897	0
18	224465	1.547185752942	1
18	225490	1.551979832453	0
18	230333	1.590797391201	1
18	232605	1.599804461602	0
18	236590	1.640347850268	1
18	238863	1.649325101488	0
18	244255	1.693316687307	1
18	246311	1.701335451532	0
18	250740	1.741862065284	1
18	252436	1.749179030332	0
18	258582	1.793883377943	1
18	259962	1.799732287757	0
18	265746	1.842027153738	1
18	266765	1.846362233249	0
18	272946	1.894032616784	1
18	274746	1.90120305898	0
18	280094	1.942857325915	1
18	281077	1.947471405426	0
18	287242	1.992984640017	1
18	288225	1.997625719528	0
18	294390	2.041775158259	1
18	295373	2.04639823777	0
18	301506	2.088810784907	1
18	302521	2.093352828481	0
18	308612	2.133864681348	1
18	309633	2.138694760859	0
18	315788	2.182864565539	1
18	316809	2.18714564505	0
18	322894	2.231467934223	1
18	323923	2.235902049671	0
18	328582	2.277230518548	1
18	330892	2.286643915464	0
18	337252	2.334321860361	1
18	338382	2.339595115294	0
18	344783	2.38639630493	1
18	346659	2.393987497415	0
18	352470	2.440290068413	1
18	354377	2.448516189545	0
18	359771	2.490419789447	1
18	361568	2.497721715472	0
18	366228	2.536528950593	1
18	368593	2.546043168197	0
18	374508	2.588616005092	1
18	375910	2.594899102057	0
18	381500	2.640018534703	1
18	383056	2.647030026973	0
18	387534	2.688237189371	1
18	389578	2.697059836909	0
18	396052	2.74599298217	1
18	397403	2.751877813055	0
18	403505	2.794031217455	1
18	404530	2.798996296966	0
18	410445	2.838594219464	1
18	411649	2.844191808021	0
18	417669	2.882807114641	1
18	418798	2.887761254408	0
18	424490	2.929526091252	1
18	425945	2.935852353999	0
18	431331	2.981037264186	1
18	433092	2.98842913722	0
18	438151	3.028943219607	1
18	440179	3.037143531011	0
18	446468	3.083930748752	1
18	447487	3.089021792326	0
18	452618	3.128407196335	1
18	454613	3.136783133668	0
18	460786	3.182240467822	1
18	461815	3.187394511396	0
18	467951	3.233097254132	1
18	468963	3.237954297706	0
18	475092	3.280462932853	1
18	476111	3.285248012364	0
18	482274	3.330102268405	1
18	483411	3.33543948918	0
18	489370	3.376288556985	1
18	490385	3.380650636496	0
18	496532	3.427113463013	1
18	497555	3.432096542524	0
18	503678	3.477498508558	1
18	504703	3.482355588069	0
18	510826	3.526429114068	1
18	512715	3.53414042092	0
18	517984	3.57576674044	1
18	518999	3.580461855888	0
18	525159	3.623888167928	1
18	526152	3.628574247439	0
18	532312	3.671394555954	1
18	533295	3.675720635465	0
18	539460	3.719194774508	1
18	540443	3.723871854019	0
18	546608	3.771116937512	1
18	548554	3.77920813863	0
18	553838	3.830068390803	1
18	555938	3.838557553716	0
18	561179	3.886235809131	1
18	563475	3.89584002034	0
18	568938	3.941540920849	1
18	570933	3.949645144822	0
18	576743	3.988937689478	1
18	578088	3.995010249116	0
18	583835	4.039023424734	1
18	585280	4.045655438648	0
18	589960	4.086436323629	1
18	592258	4.096052887252	0
18	598577	4.142121683166	1
18	599596	4.146708762677	0
18	605736	4.186251095439	1
18	606757	4.190676210887	0
18	612939	4.23029248353	1
18	613959	4.235176563041	0
18	620123	4.281171910347	1
18	621107	4.285506989858	0
18	627205	4.323794489747	1
18	628230	4.328633569258	0
18	634352	4.370685365738	1
18	635379	4.375533445249	0
18	640784	4.416781676033	1
18	642501	4.4239796599	0
18	647288	4.463974356042	1
18	649435	4.472853219666	0
18	654796	4.513250206563	1
18	656795	4.521884150339	0
18	662944	4.569079481344	1
18	663949	4.573531560855	0
18	669439	4.61662886657	1
18	671094	4.62377997901	0
18	675673	4.663962026849	1
18	677455	4.671604518412	0
18	682899	4.716397508864	1
18	685195	4.726216929863	0
18	689942	4.769127931489	1
18	691383	4.775621375344	0
18	697174	4.822245343806	1
18	698157	4.826463423317	0
18	704364	4.874681751115	1
18	706211	4.88250088137	0
18	711722	4.931756092936	1
18	713709	4.939895405611	0
18	718743	4.98253576987	1
18	719726	4.987113849381	0
18	725891	5.026991665617	1
18	726874	5.031668745128	0
18	733009	5.073347474398	1
18	734022	5.077763553909	0
18	740147	5.122054044424	1
18	741168	5.126542123935	0
18	747268	5.166888727347	1
18	748292	5.171610842795	0
18	754415	5.215803704253	1
18	755422	5.220165783764	0
18	761094	5.264753126956	1
18	762566	5.271214749099	0
18	768343	5.317348898843	1
18	769714	5.323273620291	0
18	775863	5.369979983304	1
18	776883	5.374639062815	0
18	783028	5.415264653447	1
18	784051	5.419752697021	0
18	790223	5.466167410562	1
18	791206	5.47059252601	0
18	797371	5.513174985526	1
18	798354	5.518104065037	0
18	804560	5.563236071681	1
18	805543	5.567922151192	0
18	811700	5.609921020632	1
18	812691	5.614733064206	0
18	818840	5.658964477428	1
18	819839	5.663704521002	0
18	825984	5.710512010432	1
18	826987	5.714901054006	0
18	833141	5.759779018203	1
18	834135	5.764285061777	0
18	840250	5.805139616023	1
18	841273	5.809744731471	0
18	847431	5.854855491357	1
18	848454	5.859298606805	0
18	853275	5.89912555485	1
18	855249	5.906777360426	0
18	859627	5.947293900742	1
18	861357	5.954734890784	0
18	867146	6.003194281402	1
18	868281	6.008612511298	0
18	874294	6.05446490737	1
18	875429	6.059703068827	0
18	881442	6.107977036517	1
18	882425	6.112969080091	0
18	888590	6.156065815527	1
18	889573	6.160976895038	0
18	895754	6.198526836182	1
18	896763	6.203203915693	0
18	902920	6.245166997319	1
18	903945	6.249799112767	0
18	910082	6.296288668248	1
18	911101	6.300848783696	0
18	917194	6.345794157368	1
18	918223	6.350588200942	0
18	924364	6.397359305851	1
18	925389	6.402387349425	0
18	930927	6.440316990748	1
18	932532	6.446963401156	0
18	937315	6.486001791725	1
18	939523	6.495307298797	0
18	945385	6.53958789261	1
18	947515	6.548592667574	0
18	953066	6.593363170634	1
18	954071	6.598400286082	0
18	960236	6.642965048157	1
18	961219	6.647633127668	0
18	967349	6.687310964948	1
18	968367	6.691943008522	0
18	974462	6.732102230383	1
18	975475	6.736716309894	0
18	980444	6.775272202458	1
18	982605	6.783870567128	0
18	986475	6.823249878265	1
18	988605	6.831917754811	0
18	994173	6.877926534224	1
18	995299	6.882884795507	0
18	1001379	6.932648865659	1
18	1002362	6.93760494517	0
18	1008517	6.981433866198	1
18	1009510	6.986074945709	0
18	1015615	7.024082441496	1
18	1016634	7.028525521007	0
18	1022217	7.068011107885	1
18	1023758	7.074852227479	0
18	1029933	7.122401112604	1
18	1030953	7.126538192115	0
18	1037097	7.169285947409	1
18	1038102	7.174214990983	0
18	1044255	7.217399015676	1
18	1045282	7.22200405925	0
18	1051417	7.269123295986	1
18	1052439	7.273782375497	0
18	1058558	7.317824906662	1
18	1059585	7.322662986937	0
18	1064536	7.364632902797	1
18	1066767	7.374001711324	0
18	1072133	7.417554389845	1
18	1073954	7.424880652963	0
18	1079251	7.467004698339	1
18	1081257	7.475395111021	0
18	1087043	7.522010123965	1
18	1088299	7.527630864417	0
18	1095016	7.576443672677	1
18	1097228	7.585583720764	0
18	1102337	7.625117105876	1
18	1104378	7.633282195267	0
18	1110588	7.680916264929	1
18	1112890	7.690379133841	0
18	1118510	7.732516120423	1
18	1120461	7.740684532914	0
18	1125684	7.782168229228	1
18	1127611	7.790389831681	0
18	1132571	7.834103480809	1
18	1135487	7.845405054085	0
18	1141889	7.895221367481	1
18	1143693	7.902951029282	0
18	1149033	7.944757927909	1
18	1150842	7.952480672478	0
18	1155578	7.994861999522	1
18	1157406	8.002294583955	0
18	1162817	8.044277582923	1
18	1165171	8.054496973218	0
18	1170067	8.10379549296	1
18	1173877	8.119023293263	0
18	1178746	8.170861015766	1
18	1182309	8.184364306566	0
18	1186878	8.230106069814	1
18	1189499	8.240333665256	0
18	1195638	8.287342819658	1
18	1197594	8.29557660859	0
18	1203140	8.339544441702	1
18	1204743	8.346556437921	0
18	1210885	8.391482991236	1
18	1211901	8.39609703481	0
18	1218052	8.439678591801	1
18	1219072	8.444310707249	0
18	1225208	8.491444933773	1
18	1226233	8.496545013284	0
18	1232335	8.53701105145	1
18	1233356	8.541571130961	0
18	1239500	8.588714685416	1
18	1240523	8.593202800864	0
18	1245706	8.631478303736	1
18	1247630	8.639532164542	0
18	1253801	8.686905570558	1
18	1254821	8.691447650069	0
18	1260965	8.730352722015	1
18	1261989	8.735092801526	0
18	1268098	8.779529177295	1
18	1269115	8.783666256806	0
18	1274716	8.827496973314	1
18	1276261	8.833675331025	0
18	1280716	8.873443930526	1
18	1282944	8.882491215907	0
18	1287904	8.926932096961	1
18	1289771	8.93477792586	0
18	1295206	8.983786265211	1
18	1297629	8.994016247381	0
18	1302381	9.039471073599	1
18	1304020	9.046308341841	0
18	1309879	9.096277080976	1
18	1312021	9.105238541337	0
18	1316777	9.148273935875	1
18	1319112	9.157811903394	0
18	1324273	9.198276651665	1
18	1326369	9.206888968047	0
18	1331622	9.250883033446	1
18	1333574	9.259583009563	0
18	1339051	9.297671703112	1
18	1340724	9.304751034455	0
18	1346976	9.350528775617	1
18	1347998	9.355187855128	0
18	1354123	9.399625153498	1
18	1355147	9.404212233009	0
18	1361231	9.445751863579	1
18	1362258	9.450293979027	0
18	1367691	9.493361401588	1
18	1369436	9.500733211608	0
18	1374537	9.53898610344	1
18	1376624	9.547329999343	0
18	1380640	9.585224342926	1
18	1382673	9.593758727667	0
18	1388152	9.638741365034	1
18	1389848	9.645559171578	0
18	1395354	9.689172848972	1
18	1396337	9.69344496442	0
18	1402502	9.74004189639	1
18	1403789	9.746180366957	0
18	1409691	9.794906650163	1
18	1411132	9.801219054688	0
18	1416922	9.847681357269	1
18	1418722	9.855067285347	0
18	1424111	9.902599264317	1
18	1425706	9.909208963587	0
18	1431259	9.957790981657	1
18	1432294	9.962325067589	0
19	10	0	28
20	11	0	28
21	12	0	28
22	13	0	28
23	228	0.000890403932	28
23	259	0.000984403932	28
23	290	0.001105403932	28
23	368	0.00150644352	28
24	1094	0.004477382011	1500
24	8066	0.067932065988	1500
24	15251	0.124576781846	1500
24	22481	0.176533929745	1500
24	29629	0.226940501539	1500
24	36761	0.271954671043	1500
24	43877	0.319043489702	1500
24	50138	0.367556866166	1500
24	57211	0.416774885118	1500
24	65064	0.467470720372	1500
24	72087	0.516875812965	1500
24	79647	0.565202285365	1500
24	86812	0.614429105623	1500
24	92754	0.660386126861	1500
24	99532	0.708612394026	1500
24	108315	0.76481136122	1500
24	115491	0.81240510868	1500
24	122629	0.860620691436	1500
24	129784	0.909645822391	1500
24	136967	0.957939825026	1500
24	144165	1.009216269561	1500
24	151313	1.058418537563	1500
24	158461	1.104790862045	1500
24	165609	1.14990541027	1500
24	172718	1.197992109185	1500
24	179863	1.245264217918	1500
24	187006	1.293961746395	1500
24	194550	1.345670034432	1500
24	202008	1.397752398287	1500
24	210258	1.45038319297	1500
24	216795	1.497266447315	1500
24	224647	1.54794193885	1500
24	230877	1.592929638808	1500
24	237024	1.642060781902	1500
24	244542	1.694360913575	1500
24	251203	1.743784805166	1500
24	258757	1.794639563851	1500
24	265927	1.842720339646	1500
24	273121	1.894698802692	1500
24	280269	1.943721511823	1500
24	287417	1.993677825925	1500
24	294565	2.042468344167	1500
24	301686	2.089512970815	1500
24	308793	2.134710867256	1500
24	315969	2.183602751447	1500
24	323075	2.232134120131	1500
24	329268	2.280066788446	1500
24	337432	2.335069046269	1500
24	345221	2.388345230407	1500
24	352852	2.441920697041	1500
24	360113	2.491641408876	1500
24	366693	2.538379030011	1500
24	374927	2.590345811672	1500
24	381975	2.642178762039	1500
24	387914	2.689809966021	1500
24	396426	2.747566587638	1500
24	403687	2.794886403363	1500
24	410722	2.839638657121	1500
24	417968	2.884002396742	1500
24	424916	2.931352922842	1500
24	431766	2.982683892814	1500
24	438557	3.03061170455	1500
24	446645	3.08485793466	1500
24	453185	3.130918785395	1500
24	460970	3.18301465373	1500
24	468133	3.23393444004	1500
24	475275	3.281291118761	1500
24	482451	3.330813454313	1500
24	489549	3.377008742893	1500
24	496713	3.428013648921	1500
24	503862	3.478479694466	1500
24	511014	3.527293299976	1500
24	518165	3.576585926348	1500
24	525339	3.624734353836	1500
24	532487	3.672186741862	1500
24	539635	3.719959960416	1500
24	546935	3.772566070463	1500
24	554013	3.830689576711	1500
24	561613	3.888068556909	1500
24	569411	3.943356034553	1500
24	577161	3.990592103866	1500
24	584254	4.0407682905	1500
24	590389	4.088359544334	1500
24	598757	4.142751869074	1500
24	605915	4.186791281347	1500
24	613121	4.231237669438	1500
24	620299	4.281892096255	1500
24	627385	4.324550675655	1500
24	634533	4.371360551646	1500
24	641222	4.418437189785	1500
24	647615	4.465168562877	1500
24	655365	4.515633409263	1500
24	663119	4.569925667252	1500
24	669870	4.61851135663	1500
24	676053	4.66540200499	1500
24	683326	4.718294795821	1500
24	690117	4.769821117397	1500
24	697349	4.822965529714	1500
24	704591	4.875718041597	1500
24	712044	4.933070657685	1500
24	718918	4.983336955778	1500
24	726066	5.027738851525	1500
24	733190	5.074238660306	1500
24	740327	5.122738230332	1500
24	747450	5.167698913255	1500
24	754590	5.216487890161	1500
24	761585	5.266895588395	1500
24	768788	5.319080651828	1500
24	776043	5.370655169212	1500
24	783210	5.416029839355	1500
24	790398	5.46690559647	1500
24	797546	5.514057171434	1500
24	804735	5.563866257589	1500
24	811882	5.61079420654	1500
24	819021	5.659585663336	1500
24	826165	5.71115119634	1500
24	833321	5.760535204111	1500
24	840431	5.805850801931	1500
24	847614	5.855710677265	1500
24	853629	5.900490575898	1500
24	860105	5.949323568958	1500
24	867321	6.00390546731	1500
24	874469	6.055392093278	1500
24	881617	6.108859222425	1500
24	888765	6.156930001435	1500
24	895935	6.19927402209	1500
24	903103	6.245887183227	1500
24	910261	6.296846854156	1500
24	917375	6.346460343276	1500
24	924547	6.398151491759	1500
24	931479	6.442364990387	1500
24	937704	6.487702649378	1500
24	945908	6.54176378558	1500
24	953248	6.594137356542	1500
24	960411	6.643811234065	1500
24	967531	6.688112150856	1500
24	974639	6.732777416291	1500
24	980881	6.777058841366	1500
24	986895	6.825070108144	1500
24	994354	6.878745720132	1500
24	1001554	6.933540051567	1500
24	1008698	6.982154052106	1500
24	1015798	7.025036627404	1500
24	1022777	7.070362079331	1500
24	1030114	7.123157298512	1500
24	1037279	7.170105133317	1500
24	1044438	7.218128201584	1500
24	1051599	7.270005481894	1500
24	1058741	7.318697093334	1500
24	1065607	7.368942591613	1500
24	1072797	7.420208366462	1500
24	1079641	7.468793833377	1500
24	1087420	7.523708820843	1500
24	1095357	7.577987812888	1500
24	1102628	7.626325286781	1500
24	1111064	7.683011166928	1500
24	1118945	7.73429797951	1500
24	1126175	7.784085427909	1500
24	1133031	7.83586628418	1500
24	1142302	7.896845517285	1500
24	1149518	7.946925052324	1500
24	1155903	7.99608636918	1500
24	1163233	8.04637224648	1500
24	1170880	8.107114235348	1500
24	1179323	8.173180076858	1500
24	1187681	8.233177516194	1500
24	1196123	8.289200247088	1500
24	1203754	8.341949313154	1500
24	1211065	8.392383177144	1500
24	1218233	8.440335777709	1500
24	1225391	8.492471119681	1500
24	1232515	8.537740237358	1500
24	1239683	8.589623871324	1500
24	1246147	8.63331664645	1500
24	1253982	8.687625756466	1500
24	1261147	8.731063907923	1500
24	1268279	8.780114363203	1500
24	1275260	8.829581177407	1500
24	1281239	8.875551620057	1500
24	1288090	8.927625282869	1500
24	1295658	8.985700227285	1500
24	1302853	9.041620131191	1500
24	1310255	9.097874559429	1500
24	1317291	9.150366078397	1500
24	1324593	9.199682216272	1500
24	1332048	9.252736160533	1500
24	1339696	9.300242834075	1500
24	1347158	9.351293961525	1500
24	1354304	9.400453339406	1500
24	1361412	9.446463049487	1500
24	1368235	9.495328007665	1500
24	1374901	9.540411221236	1500
24	1381166	9.587292295044	1500
24	1388338	9.639533550942	1500
24	1395529	9.68980303488	1500
24	1402677	9.740942082298	1500
24	1409871	9.795626836071	1500
24	1417149	9.848708585535	1500
24	1424286	9.903328450225	1500
24	1431434	9.958601167565	1500
25	1248	0.004975588415	1500
25	8521	0.069846780923	1500
25	16772	0.131812798939	1500
25	24216	0.18742034163	1500
25	31410	0.243349004262	1500
25	38566	0.297667434686	1500
25	45756	0.348922151337	1500
25	52904	0.394489635222	1500
25	60052	0.444545692293	1500
25	67200	0.488582107656	1500
25	74348	0.538063976347	1500
25	81496	0.591796590173	1500
25	88686	0.639930383162	1500
25	95876	0.6831290052	1500
25	102980	0.727074073191	1500
25	110096	0.773336892238	1500
25	117252	0.821535035454	1500
25	124400	0.869531836749	1500
25	131497	0.917404879072	1500
25	138496	0.964509661759	1500
25	145686	1.016254176271	1500
25	153044	1.068703713572	1500
25	160216	1.118044240063	1500
25	167357	1.162333607538	1500
25	174507	1.210688514095	1500
25	181644	1.256432167726	1500
25	188774	1.301622912657	1500
25	194181	1.344309257307	1500
25	201339	1.394891369413	1500
25	208516	1.442973838785	1500
25	215705	1.492097787599	1500
25	222779	1.53744822537	1500
25	229467	1.587405835965	1500
25	237657	1.644519359856	1500
25	244485	1.694188749529	1500
25	253118	1.751872114234	1500
25	259604	1.798302510632	1500
25	267701	1.852723344981	1500
25	273681	1.897095550715	1500
25	281990	1.952633607914	1500
25	289138	2.001680992187	1500
25	296294	2.05269122674	1500
25	303482	2.104461865382	1500
25	310622	2.148923570938	1500
25	317790	2.199498805727	1500
25	324910	2.24509744545	1500
25	332100	2.296764716207	1500
25	338543	2.340102429311	1500
25	344641	2.385750434082	1500
25	351801	2.437419559981	1500
25	358951	2.486345363154	1500
25	366116	2.535973242885	1500
25	373310	2.582821503425	1500
25	380475	2.635330496229	1500
25	387711	2.688923580615	1500
25	394807	2.740708254643	1500
25	401955	2.783840637624	1500
25	409103	2.832252811706	1500
25	416237	2.875899676164	1500
25	423399	2.924108920594	1500
25	430547	2.976804889984	1500
25	437695	3.026713447966	1500
25	444926	3.075492895132	1500
25	452074	3.125856934708	1500
25	459176	3.1704706485	1500
25	466356	3.218823614204	1500
25	473478	3.267496723023	1500
25	480547	3.312986666025	1500
25	487780	3.365550688589	1500
25	494904	3.414318734453	1500
25	502052	3.464925482389	1500
25	509200	3.514327451451	1500
25	516354	3.562424235978	1500
25	523435	3.606989450329	1500
25	530536	3.652060901801	1500
25	537782	3.701259940318	1500
25	544944	3.746680421199	1500
25	552178	3.797648585112	1500
25	557698	3.845309907334	1500
25	563692	3.896573338008	1500
25	571775	3.952771234272	1500
25	579044	3.9999229518	1500
25	585543	4.046686964024	1500
25	593793	4.102374691972	1500
25	601795	4.157716593841	1500
25	608816	4.204306376984	1500
25	616659	4.257165769633	1500
25	623504	4.304222388308	1500
25	630802	4.35311097529	1500
25	638127	4.401318332043	1500
25	645276	4.447553638283	1500
25	652434	4.496056298536	1500
25	659587	4.548057402127	1500
25	666759	4.597505225394	1500
25	673891	4.643900297293	1500
25	681101	4.686613888363	1500
25	687988	4.737813827871	1500
25	693952	4.785938408485	1500
25	701898	4.842275290374	1500
25	708555	4.891718514733	1500
25	715163	4.945232148107	1500
25	722943	5.002600858297	1500
25	729618	5.052247846005	1500
25	736754	5.098748677438	1500
25	743870	5.140932491301	1500
25	751022	5.188333260026	1500
25	758176	5.240960702708	1500
25	765314	5.287151409175	1500
25	772470	5.337171176559	1500
25	779277	5.384613492826	1500
25	786758	5.436839859697	1500
25	793906	5.487513502998	1500
25	801068	5.535578173777	1500
25	808277	5.585453088398	1500
25	815419	5.636216010138	1500
25	822589	5.687407792039	1500
25	829738	5.736731018945	1500
25	836901	5.785216837992	1500
25	844051	5.835855014234	1500
25	851240	5.889887492071	1500
25	858388	5.941376966697	1500
25	865536	5.984426815285	1500
25	872684	6.036898074508	1500
25	879796	6.082805302609	1500
25	886213	6.128664715745	1500
25	893155	6.180795192548	1500
25	900190	6.229138253348	1500
25	907431	6.279513226111	1500
25	914528	6.332363250763	1500
25	922736	6.386083725766	1500
25	928817	6.431713040179	1500
25	937073	6.484941826315	1500
25	944227	6.534221497721	1500
25	951359	6.578600081224	1500
25	958558	6.623505883405	1500
25	965506	6.673172354903	1500
25	972854	6.72389444346	1500
25	979449	6.771227649457	1500
25	987667	6.828114013179	1500
25	995618	6.884136185049	1500
25	1004004	6.944717209948	1500
25	1010439	6.993155602746	1500
25	1017639	7.044165270482	1500
25	1024787	7.095106795038	1500
25	1031926	7.13865303157	1500
25	1039083	7.187370036037	1500
25	1046272	7.236320098706	1500
25	1053406	7.285271164502	1500
25	1060570	7.330998658404	1500
25	1067722	7.378236844013	1500
25	1074912	7.429654770213	1500
25	1081415	7.475965425038	1500
25	1088982	7.530377798348	1500
25	1094621	7.574702808053	1500
25	1101778	7.622113066936	1500
25	1108937	7.673170366146	1500
25	1116095	7.721108401277	1500
25	1123273	7.767893419763	1500
25	1130429	7.813884833473	1500
25	1137537	7.858360416857	1500
25	1144642	7.906853152772	1500
25	1151475	7.955037570472	1500
25	1158551	8.00671199942	1500
25	1164965	8.053715561176	1500
25	1170342	8.104870588736	1500
25	1177016	8.16339352462	1500
25	1184246	8.217672351558	1500
25	1191478	8.269142620211	1500
25	1198626	8.31656387703	1500
25	1205774	8.366949031895	1500
25	1212922	8.413198423432	1500
25	1220070	8.461402749216	1500
25	1227196	8.507251142006	1500
25	1234346	8.552685217926	1500
25	1241493	8.604060184192	1500
25	1248662	8.656154212068	1500
25	1255810	8.707118916212	1500
25	1263000	8.756986903519	1500
25	1270148	8.807132270573	1500
25	1277296	8.854081533539	1500
25	1284486	8.904776158037	1500
25	1291675	8.957318480957	1500
25	1298795	9.00471002267	1500
25	1305893	9.054930432895	1500
25	1312186	9.105871855354	1500
25	1320117	9.161822185173	1500
25	1327461	9.215352368754	1500
25	1334693	9.270810576885	1500
25	1341753	9.321458979796	1500
25	1348985	9.370320908217	1500
25	1356109	9.414904130623	1500
25	1363281	9.464782311958	1500
25	1370457	9.512474664837	1500
25	1377661	9.564663957869	1500
25	1384797	9.610112506775	1500
25	1391931	9.660459770947	1500
25	1399062	9.709518206021	1500
25	1406243	9.759807257044	1500
25	1412298	9.805851530074	1500
25	1420218	9.860955041107	1500
25	1427722	9.9175241053	1500
25	1435494	9.975345416171	1500
26	1691	0.006731321373	536
26	1903	0.007458505123	536
26	2503	0.009763474062	536
26	2604	0.01013751365	536
26	2710	0.010592553238	536
26	2822	0.011047632414	536
26	3392	0.013361441091	536
26	3448	0.013568480679	428
26	3508	0.013811520267	428
26	3616	0.014158559855	536
26	4392	0.016911848576	428
26	5238	0.020286562441	428
26	8411	0.069430670243	536
26	8874	0.071240441611	536
26	9022	0.071813625293	536
26	9827	0.075216628892	536
26	9928	0.07561366848	428
26	10133	0.076460747656	536
26	10240	0.076915826832	536
26	10910	0.079366959977	428
26	11277	0.080724157917	536
26	11383	0.081197197505	536
26	11909	0.083194225632	428
26	12420	0.085207019612	428
26	15449	0.125523060708	536
26	15650	0.126613246616	536
26	15851	0.127722432524	428
26	17117	0.133309307688	536
26	17375	0.134472568636	536
26	17584	0.135509789996	428
26	18848	0.140656541511	536
26	19527	0.143440330153	536
26	19583	0.143633369741	536
26	19895	0.145040611357	536
26	20151	0.146050797877	428
26	20210	0.146221837465	428
26	22679	0.17748917267	536
26	22880	0.178363358578	536
26	23081	0.179463544486	428
26	24420	0.18833967367	536
26	24629	0.18934889503	536
26	24994	0.190911368275	428
26	25415	0.192431746577	536
26	25684	0.193517040684	536
26	26488	0.196760142965	428
26	27588	0.200992266779	536
26	28114	0.203166574833	536
26	28377	0.204321758583	428
26	29827	0.228003744464	536
26	30028	0.229039930372	536
26	30229	0.22998711628	428
26	31612	0.244358336302	536
26	31872	0.245611997842	536
26	32331	0.247437689973	428
26	32583	0.248376017749	536
26	33285	0.251168983779	536
26	33494	0.252022102543	536
26	34108	0.254385918235	536
26	34212	0.254763957823	428
26	34581	0.256109300717	428
26	36965	0.272819949905	536
26	37176	0.273901135813	536
26	37377	0.274731321721	428
26	38762	0.298613757527	536
26	39015	0.299921083461	536
26	39521	0.301894774917	428
26	39579	0.302195814505	536
26	40231	0.304834893966	536
26	40946	0.307460855585	428
26	41352	0.309045221782	536
26	42238	0.312453317125	536
26	42609	0.314040618093	428
26	44085	0.320025732627	536
26	44298	0.321124918535	536
26	44509	0.322126104443	428
26	45952	0.349787474178	536
26	46153	0.350823695538	536
26	46354	0.351770916898	428
26	47671	0.357592743755	536
26	47876	0.358619887917	536
26	48090	0.359504032079	428
26	48981	0.363109814927	536
26	49394	0.364702250183	536
26	50023	0.367077773212	428
26	50503	0.369034376192	536
26	51177	0.371787018509	536
26	51651	0.373871472271	428
26	53100	0.395255967262	536
26	53301	0.396202188622	536
26	53502	0.397167409982	428
26	54819	0.403223364255	536
26	55022	0.403989508417	536
26	55234	0.405116652579	428
26	56631	0.414310481952	536
26	56893	0.415419710218	536
26	57363	0.417419124392	428
26	57526	0.418100203568	536
26	58143	0.420584820469	536
26	58644	0.422647163183	428
26	60248	0.445627024333	536
26	60449	0.446501245693	536
26	60650	0.447682467053	428
26	61969	0.454152405935	536
26	62180	0.455233550097	536
26	62389	0.456198694259	428
26	63754	0.462298875639	536
26	63961	0.463181957585	536
26	64170	0.464111039531	428
26	65373	0.468778038822	536
26	65740	0.470374524333	536
26	65950	0.471366710241	428
26	67396	0.489501439696	536
26	67597	0.490654661056	536
26	67798	0.491817882416	428
26	69125	0.498966550024	536
26	69334	0.499921694186	536
26	69542	0.500940838348	428
26	70940	0.511701060122	536
26	71150	0.512692142068	536
26	71360	0.513702224014	428
26	72489	0.518558358928	536
26	72894	0.520424776753	536
26	73105	0.521524962661	428
26	74544	0.539118299188	536
26	74750	0.540199520548	536
26	75156	0.541943202737	428
26	75505	0.543273712421	536
26	75764	0.544260038355	536
26	76362	0.546689144866	428
26	78062	0.556023188517	536
26	78273	0.556987270463	536
26	78484	0.557988352409	428
26	79853	0.566175564227	536
26	80062	0.567130750135	536
26	80273	0.568275936043	428
26	81692	0.592661922213	536
26	81893	0.593743143573	536
26	82246	0.595431721256	428
26	83059	0.598703834696	536
26	83866	0.60214271823	536
26	84077	0.60303993959	536
26	84392	0.604403309792	428
26	84501	0.604834384652	536
26	85285	0.607983043178	428
26	87019	0.615366348548	536
26	87232	0.616546534456	536
26	87443	0.617511720364	428
26	88882	0.640948706003	536
26	89083	0.641948927363	536
26	89284	0.643013148723	428
26	90619	0.651329323421	536
26	90827	0.652275405367	536
26	91037	0.653303487313	428
26	92342	0.658565599263	536
26	92808	0.660705219815	536
26	93064	0.661679555694	536
26	93376	0.66297799027	536
26	93432	0.663203029858	428
26	93791	0.664462509899	428
26	96072	0.68410233724	536
26	96273	0.6850845586	536
26	96474	0.68625677996	428
26	97859	0.70134632252	536
26	98060	0.702328404466	536
26	98261	0.703320486412	428
26	99837	0.709848989521	536
26	100046	0.710732212791	536
26	100310	0.711868646695	536
26	100462	0.712543830377	536
26	100670	0.713329055873	428
26	100933	0.714259487551	428
26	103184	0.727984405231	536
26	103397	0.729038626591	536
26	103608	0.730129847951	428
26	105007	0.747001108014	536
26	105208	0.74813618996	536
26	105409	0.749110271906	428
26	106750	0.758267785104	536
26	106958	0.759168929266	536
26	107168	0.760152073428	428
26	108513	0.765631604145	536
26	108714	0.766613790053	536
26	108923	0.767632975961	428
26	110302	0.774256224278	536
26	110514	0.775400445638	536
26	110721	0.776293666998	428
26	112155	0.792659486511	536
26	112356	0.793632568457	536
26	112557	0.794570650403	428
26	113874	0.800701666853	536
26	114082	0.801674811015	536
26	114292	0.802819955177	428
26	115697	0.813468387542	536
26	115907	0.81452257345	536
26	116117	0.815460759358	428
26	117456	0.822472367494	536
26	117665	0.823598588854	536
26	117873	0.824581810214	428
26	119303	0.842392497992	536
26	119504	0.843428579938	536
26	119705	0.844429661884	428
26	120924	0.849852614232	536
26	121229	0.85112484034	536
26	121436	0.852053984502	428
26	122836	0.861638934361	536
26	123045	0.862585120269	536
26	123253	0.863505306177	428
26	124602	0.870415168789	536
26	124810	0.871469390149	536
26	125019	0.872308611509	428
26	126451	0.890927769394	536
26	126652	0.89197285134	536
26	126853	0.893045933286	428
26	128072	0.898108954868	536
26	128373	0.89941717389	536
26	128582	0.900247318052	428
26	129992	0.910745101253	536
26	130201	0.911583287161	536
26	130411	0.912656473069	428
26	131744	0.9185142507	536
26	131951	0.91958647206	536
26	132158	0.92037169342	428
26	133599	0.934865149008	536
26	133800	0.935721230954	536
26	134001	0.9366323129	428
26	135318	0.94267826241	536
26	135524	0.943705406572	536
26	135734	0.944715550734	428
26	137173	0.958796103888	536
26	137374	0.959742289796	536
26	137575	0.960725475704	428
26	138881	0.966433170508	536
26	139135	0.967524431456	536
26	139345	0.968462652816	428
26	140747	0.977922874417	536
26	140957	0.978850956363	536
26	141163	0.979564038309	428
26	142523	0.98792542304	536
26	142731	0.988826567202	536
26	142942	0.989845711364	428
26	144363	1.010252548423	536
26	144564	1.011279734331	536
26	144765	1.012244920239	428
26	145984	1.017362860442	536
26	146285	1.018689440283	536
26	146494	1.019573661643	428
26	147859	1.025233188967	536
26	148068	1.026152270913	536
26	148278	1.027045352859	428
26	149714	1.040003182212	536
26	149922	1.040850326374	536
26	150126	1.042013470536	428
26	151511	1.059346780488	536
26	151712	1.060571966396	536
26	151913	1.061573152304	428
26	153300	1.069885078771	536
26	153767	1.071694464023	536
26	153925	1.072267543199	536
26	154239	1.073625019214	428
26	154299	1.073854058802	536
26	154968	1.076683040428	428
26	156794	1.084207006093	536
26	157004	1.085234150255	536
26	157214	1.086163294417	428
26	158659	1.105764140907	536
26	158860	1.106692326815	536
26	159061	1.107675512723	428
26	160420	1.118882562904	536
26	160631	1.119783784264	536
26	160841	1.120812005624	428
26	162218	1.127150718262	536
26	162528	1.1284409416	536
26	162950	1.130218287722	536
26	163055	1.13065132731	428
26	163426	1.132002706002	536
26	164101	1.134801364528	428
26	165807	1.150869653195	536
26	166008	1.151896839103	536
26	166209	1.152835025011	428
26	167559	1.163171939578	536
26	167769	1.164244160938	536
26	167982	1.165317382298	428
26	169386	1.179603977818	536
26	169839	1.18147334802	536
26	169993	1.181986531702	536
26	170341	1.183533877892	428
26	170446	1.18401591748	536
26	170902	1.185829258036	428
26	172925	1.19881235211	536
26	173135	1.199839538018	536
26	173345	1.200885723926	428
26	174712	1.211670846135	536
26	174921	1.212581067495	536
26	175130	1.213438288855	428
26	176521	1.226797052959	536
26	176730	1.227716134905	536
26	176931	1.228528216851	428
26	178248	1.234109316041	536
26	178449	1.234992460203	536
26	178656	1.235849604365	428
26	180069	1.246147460843	536
26	180278	1.247066646751	536
26	180487	1.247923832659	428
26	181847	1.257279490567	536
26	182057	1.258252711927	536
26	182266	1.259244933287	428
26	183671	1.272898547905	536
26	183878	1.273952629851	536
26	184079	1.274962711797	428
26	185412	1.283016754194	536
26	185621	1.284088898356	536
26	185832	1.285297042518	428
26	187211	1.294854025257	536
26	187420	1.295872211165	536
26	187627	1.296639397073	428
26	188970	1.302686244697	536
26	189175	1.303704466057	536
26	189386	1.304840687417	428
26	190825	1.323507572104	536
26	191026	1.32452565405	536
26	191227	1.325607735996	428
26	192046	1.328714422742	536
26	192592	1.331103907392	536
26	192954	1.332701253514	428
26	194602	1.345863127386	536
26	194857	1.346864502853	536
26	195058	1.347819763801	536
26	195359	1.349145456874	536
26	195460	1.349569496462	428
26	195618	1.35017368237	428
26	197973	1.373065733597	536
26	198226	1.374174920117	536
26	198527	1.375529081239	428
26	198992	1.377287571523	536
26	199640	1.380066996795	536
26	199943	1.381348220133	428
26	201543	1.395765692254	536
26	201900	1.397273305333	536
26	202306	1.399028822984	428
26	202458	1.39964990216	536
26	203354	1.403675369696	536
26	203718	1.405128816552	428
26	205163	1.422345735537	536
26	205364	1.423606879699	536
26	205565	1.424572023861	428
26	206784	1.429329094947	536
26	207083	1.430709336563	536
26	207292	1.431638418509	428
26	208721	1.444055161626	536
26	208931	1.444956382986	536
26	209139	1.445831604346	428
26	210456	1.451401471832	536
26	210659	1.45234765774	536
26	210866	1.453114843648	428
26	212463	1.472694716931	536
26	212869	1.474359082885	536
26	212923	1.474669122473	536
26	213271	1.476049468663	536
26	213372	1.476545508251	428
26	213530	1.477194652413	428
26	215912	1.493143119639	536
26	216123	1.494242340999	536
26	216381	1.495514708679	428
26	217296	1.499440316169	536
26	217798	1.501471266539	536
26	218060	1.502770492035	428
26	219653	1.524615410932	536
26	220059	1.526369741614	536
26	220113	1.526589781202	536
26	220414	1.527845015732	428
26	220519	1.528249159826	536
26	221409	1.53192282805	428
26	223037	1.538548587799	536
26	223247	1.539485809159	536
26	223457	1.540424030519	428
26	224854	1.548870181775	536
26	225065	1.550086367683	536
26	225275	1.551150553591	428
26	226691	1.575368857892	536
26	226892	1.576368939838	536
26	227093	1.577262021784	428
26	228157	1.581854464179	536
26	228560	1.583567849889	536
26	228822	1.584804033639	428
26	229823	1.588685312167	536
26	230237	1.590471994424	536
26	230761	1.592495545854	428
26	231340	1.59472478553	536
26	231815	1.596681271974	536
26	232230	1.598315921792	428
26	233991	1.629599138888	536
26	234397	1.631308485078	536
26	234451	1.631528524666	536
26	234799	1.633169750774	536
26	234900	1.633575790362	428
26	235260	1.635117202922	428
26	237384	1.64338902368	536
26	237806	1.645131792278	536
26	238015	1.645871044027	536
26	238327	1.647115558027	536
26	238384	1.647349597615	428
26	238748	1.648888008534	428
26	240987	1.677987749378	536
26	241188	1.679158831324	536
26	241389	1.68022291327	428
26	242749	1.686737810582	536
26	242960	1.687746954744	536
26	243166	1.688541098906	428
26	244840	1.695771338272	536
26	245046	1.696465629609	536
26	245307	1.697556997289	536
26	245462	1.698142186848	536
26	245774	1.699324554528	428
26	245932	1.699896633704	428
26	248260	1.721807675383	536
26	248461	1.722771757329	536
26	248662	1.723799839275	428
26	250047	1.738497632419	536
26	250248	1.739533776581	536
26	250449	1.740534920743	428
26	251603	1.745481166855	536
26	252011	1.747204601499	536
26	252220	1.748196787407	428
26	253482	1.753377804755	536
26	253795	1.754758384596	536
26	254006	1.755840605956	428
26	255434	1.768417283083	536
26	255644	1.769408365029	536
26	255851	1.770193446975	428
26	257236	1.786806983303	536
26	257437	1.787807127465	536
26	257638	1.788709271627	428
26	258960	1.795513806776	536
26	259168	1.796486992684	536
26	259485	1.797850399952	428
26	260015	1.799898380711	536
26	260587	1.802208342519	536
26	260991	1.803860939346	428
26	262597	1.819152717826	536
26	262798	1.820134799772	536
26	262999	1.821279881718	428
26	264351	1.831838738686	536
26	264561	1.832856882848	536
26	264771	1.83390302701	428
26	266133	1.843801618508	536
26	266341	1.844729804416	536
26	266549	1.845559990324	428
26	267905	1.853813677021	536
26	268115	1.854849898381	536
26	268325	1.855779119741	428
26	269697	1.864624061699	536
26	269907	1.865651143645	536
26	270117	1.866688225591	428
26	271494	1.87659463178	536
26	271703	1.877495775942	536
26	271914	1.878622920104	428
26	273371	1.895745254127	536
26	273824	1.897698843167	536
26	273931	1.898072922343	536
26	274232	1.899273329611	536
26	274380	1.89982351917	428
26	274632	1.900819819706	428
26	276850	1.913371745883	536
26	277058	1.914272827829	536
26	277267	1.915138909775	428
26	278620	1.922620789511	536
26	278829	1.923575933673	536
[...]
38	249071	1.72570104414	0.001901204865
38	249471	1.727336282892	0.003536443617
38	256055	1.771175562808	0.000982115833
38	256307	1.772401687112	0.002208240137
38	256660	1.773792918778	0.003599471803
38	263203	1.822370004637	0.001090122919
38	263557	1.823886208117	0.002606326399
38	263808	1.825059332421	0.003779450703
38	270329	1.867571341424	0.000883115833
38	270650	1.869032537818	0.002344312227
38	270956	1.870278694624	0.003590469033
38	277480	1.916085025608	0.000946115833
38	277690	1.916833107554	0.001694197779
38	278104	1.918531271446	0.003392361671
38	284612	1.965809876583	0.001018122919
38	285086	1.967625217139	0.002833463475
38	285763	1.970297926513	0.005506172849
38	291795	2.019482793322	0.000964122919
38	292199	2.021027101308	0.002508430905
38	292811	2.023554646688	0.005035976285
38	298941	2.069907298964	0.000973122919
38	299250	2.071116462856	0.002182286811
38	299548	2.072524619662	0.003590443617
38	306087	2.121383970969	0.001027122919
38	306398	2.122674134861	0.002317286811
38	306696	2.123947331255	0.003590483205
38	313239	2.16736172193	0.000883115833
38	313698	2.169312102074	0.002833495977
38	314302	2.171812701154	0.005334095057
38	320439	2.220694239612	0.001217200643
38	320904	2.222644547666	0.003167508697
38	321349	2.22422095314	0.004743914171
38	327932	2.274619480965	0.001380364569
38	328440	2.276627861109	0.003388744713
38	329097	2.279389619247	0.006150502851
38	334725	2.321139343071	0.000955122919
38	335032	2.322510506963	0.002326286811
38	335330	2.323828706127	0.003644485975
38	341915	2.370229075523	0.000766115833
38	342222	2.371447239415	0.001984279725
38	342525	2.372639403307	0.003176443617
38	349880	2.424096493189	0.001180155421
38	350534	2.426822049979	0.003905712211
38	351217	2.429422541783	0.006506204015
38	356263	2.473846297743	0.001046200643
38	356822	2.476149645385	0.003349548285
38	357414	2.478935073521	0.006134976421
38	363506	2.522194918663	0.001073155421
38	364112	2.524610550177	0.003488786935
38	364564	2.526594962737	0.005473199495
38	370591	2.566763848948	0.001009115833
38	370843	2.567728973252	0.001974240137
38	371196	2.569237179502	0.003482446387
38	377739	2.61231358385	0.000847115833
38	378046	2.613648780244	0.002182312227
38	378344	2.61501193705	0.003545469033
38	384887	2.662690940627	0.001018122919
38	385194	2.664017104519	0.002344286811
38	385492	2.665443303683	0.003770485975
38	392009	2.709872120467	0.001027122919
38	392379	2.711352284359	0.002507286811
38	392640	2.712498408663	0.003653411115
38	399132	2.759051363882	0.001045122919
38	399392	2.760025488186	0.002019247223
38	399758	2.761497694436	0.003491453473
38	406281	2.806332847921	0.000919122919
38	406651	2.807772437018	0.002358712016
38	407122	2.80965178466	0.004238059658
38	413438	2.85260638363	0.000910122919
38	413804	2.85422158711	0.002525326399
38	414067	2.855475711414	0.003779450703
38	420627	2.901487499433	0.000928115833
38	420981	2.902886702913	0.002327319313
38	421232	2.903906827217	0.003347443617
38	427755	2.947035550118	0.001045122919
38	428017	2.948135674422	0.002145247223
38	428380	2.949769870816	0.003779443617
38	434885	2.997283389303	0.000982115833
38	435202	2.998717553195	0.002416279725
38	435514	3.000071717087	0.003770443617
38	442723	3.052195065723	0.001296267013
38	443235	3.054288553143	0.003389754433
38	443888	3.057024196079	0.006125397369
38	450468	3.106737449991	0.002201632993
38	451187	3.109473121161	0.004937304163
38	451605	3.111196389627	0.006660572629
38	458185	3.162515621816	0.000892122919
38	458506	3.164003785708	0.002380286811
38	458818	3.165501984872	0.003878485975
38	465345	3.207155075167	0.000892115833
38	465713	3.208707271561	0.002444312227
38	465975	3.209925395865	0.003662436531
38	472531	3.258549038162	0.000811115833
38	472887	3.260083202054	0.002345279725
38	473138	3.261076326358	0.003338404029
38	479681	3.309301929956	0.000919115833
38	479988	3.310628093848	0.002245279725
38	480391	3.3123624791	0.003979664977
38	486829	3.35611550515	0.000964122919
38	487081	3.357071629454	0.001920247223
38	487434	3.358552825848	0.003401443617
38	493977	3.407990577327	0.000973115833
38	494284	3.409181734133	0.002164272639
38	494582	3.410517933297	0.003500471803
38	501125	3.458077172248	0.000856115833
38	501377	3.459168296552	0.001947240137
38	501730	3.460667567806	0.003446511391
38	508273	3.507878086557	0.000910115833
38	508627	3.509412282951	0.002444312227
38	508878	3.510522407255	0.003554436531
38	515421	3.555061170551	0.000982115833
38	515775	3.556676334443	0.002597279725
38	516026	3.557795458747	0.003716404029
38	522569	3.603484723459	0.001054115833
38	522876	3.604720887351	0.002290279725
38	523326	3.606537338264	0.004106730638
38	529708	3.648548282814	0.001099115833
38	530071	3.650046446706	0.002597279725
38	530474	3.651834789736	0.004385622755
38	536846	3.695891543329	0.000883115833
38	537109	3.697117667633	0.002109240137
38	537470	3.698787831525	0.003779404029
38	543964	3.739293127811	0.000865115833
38	544280	3.740394284617	0.001966272639
38	544589	3.741676481011	0.003248469033
38	551193	3.790369193712	0.001072115833
38	551561	3.791903390106	0.002606312227
38	551823	3.79311251441	0.003815436531
38	558691	3.849311359505	0.002760735014
38	559425	3.852118148215	0.005567523724
38	559852	3.853778633565	0.007228009074
38	566725	3.908140716163	0.001930588942
38	567508	3.911066740147	0.004856612926
38	567980	3.912971160671	0.00676103345
38	574240	3.962930508883	0.001492659036
38	574764	3.964970076043	0.003532226196
38	575132	3.966460347297	0.00502249745
38	581659	4.011756743793	0.000955122919
38	581919	4.012874868097	0.002073247223
38	582284	4.014464139351	0.003662518477
38	588841	4.059880389934	0.000937122919
38	589211	4.061504553826	0.002561286811
38	589472	4.06278567813	0.003842411115
38	595101	4.107757951668	0.001623337193
38	595677	4.110031894227	0.003897279752
38	596353	4.112767533341	0.006632918866
38	601375	4.156148178334	0.001009122919
38	602003	4.158551745494	0.003412690079
38	602567	4.160766524815	0.0056274694
38	608704	4.203980264919	0.001462374668
38	609007	4.205191731599	0.002673841348
38	609809	4.208413839642	0.005895949391
38	615742	4.252641515881	0.000973122919
38	615994	4.253669640185	0.002001247223
38	616347	4.255348804077	0.003680411115
38	622890	4.301728783629	0.001072122919
38	623302	4.303435161795	0.002778501085
38	623852	4.305643973618	0.004987312908
38	630038	4.349958365638	0.000928122919
38	630397	4.351420702103	0.002390459384
38	630853	4.353273087355	0.004242844636
38	637186	4.393033982157	0.000802115833
38	637493	4.394270178551	0.002038312227
38	637791	4.395687342443	0.003455476119
38	644334	4.439257857431	0.000793122919
38	644586	4.440357981735	0.001893247223
38	644939	4.441758178129	0.003293443617
38	651475	4.486409905638	0.000721115833
38	651836	4.48780906953	0.002120279725
38	652087	4.489117193834	0.003428404029
38	658630	4.537962866485	0.001054115833
38	658984	4.539326030377	0.002417279725
38	659235	4.540499154681	0.003590404029
38	665758	4.584617414968	0.000955122919
38	666126	4.586232611362	0.002570319313
38	666383	4.587342735666	0.003680443617
38	672890	4.632973908961	0.000847122919
38	673207	4.634183072853	0.002056286811
38	673516	4.635420229659	0.003293443617
38	680146	4.682748196765	0.000973122919
38	680515	4.684147400245	0.002372326399
38	680776	4.685176524549	0.003401450703
38	687295	4.735040258328	0.001009115833
38	687513	4.735923340274	0.001892197779
38	688142	4.738400012683	0.004368870188
38	695161	4.790866992056	0.001884691335
38	695682	4.79288955908	0.003907258359
38	696215	4.795027188995	0.006044888274
38	701831	4.842085178309	0.001281202095
38	702346	4.844171081416	0.003367105202
38	703029	4.847080585432	0.006276609218
38	709333	4.894696335889	0.00167640717
38	709861	4.896833760729	0.00381383201
38	710227	4.898342106393	0.005322177674
38	716612	4.950908932531	0.002187631083
38	717198	4.953305350285	0.004584048837
38	717882	4.955913131719	0.007191830271
38	723927	5.00672887056	0.001383195009
38	724457	5.008615460887	0.003269785336
38	725235	5.01168035452	0.006334678969
38	732181	5.06355104113	0.001090122919
38	732547	5.065076205022	0.002615286811
38	732810	5.066285329326	0.003824411115
38	739358	5.113253873357	0.000811122919
38	739676	5.114562037249	0.002119286811
38	739984	5.116042236413	0.003599485975
38	746527	5.161243466043	0.000964115833
38	746779	5.162307590347	0.002028240137
38	747132	5.164013786741	0.003734436531
38	753675	5.211857404239	0.000946115833
38	753982	5.213111600633	0.002200312227
38	754280	5.214348757439	0.003437469033
38	760823	5.263625944299	0.000955115833
38	761182	5.265169147779	0.002498319313
38	761638	5.267057682734	0.004386854268
38	767971	5.315622018381	0.000901122919
38	768325	5.317300214775	0.002579319313
38	768681	5.318664524987	0.003943629525
38	775119	5.364417956901	0.001099122919
38	775473	5.366006153295	0.002687319313
38	775724	5.367152277599	0.003833443617
38	782267	5.407165702496	0.000829115833
38	782574	5.408500859302	0.002164272639
38	782872	5.410053016108	0.003716429445
38	789395	5.451751268711	0.001054122919
38	789654	5.452716393015	0.002019247223
38	790019	5.454233631767	0.003536485975
38	796512	5.498834544627	0.000919122919
38	796828	5.499962708519	0.002047286811
38	797139	5.501271907683	0.003356485975
38	803699	5.546468366857	0.000847115833
38	804063	5.547858563251	0.002237312227
38	804323	5.548896687555	0.003275436531
38	810854	5.597547859223	0.000973115833
38	811173	5.598901023115	0.002326279725
38	811484	5.600273187007	0.003698443617
38	817999	5.647609077183	0.000955115833
38	818316	5.648872233989	0.002218272639
38	818623	5.649992390795	0.003338429445
38	825152	5.699511395038	0.000982115833
38	825518	5.701036598518	0.002507319313
38	825779	5.702236722822	0.003707443617
38	832293	5.747763747526	0.000811115833
38	832611	5.74919794392	0.002245312227
38	832922	5.750579100726	0.003626469033
38	839449	5.797617494683	0.000892115833
38	839765	5.798889658575	0.002164279725
38	840074	5.800270857739	0.003545478889
38	846636	5.848068148739	0.000883115833
38	847000	5.849530345133	0.002345312227
38	847264	5.850946469437	0.003761436531
38	854306	5.903196280805	0.001173308827
38	854941	5.905585965731	0.003562993753
38	855669	5.90838587259	0.006362900612
38	862813	5.960493571912	0.002030602892
38	863550	5.963373142892	0.004910173872
38	864022	5.965438555452	0.006975586432
38	870225	6.016154524356	0.001700344805
38	870751	6.01817194679	0.003717767239
38	871166	6.019948254844	0.005494075293
38	877007	6.066217616131	0.000847122919
38	877374	6.067787819611	0.002417326399
38	877792	6.069432127597	0.004061634385
38	884633	6.122472106418	0.002119528487
38	885110	6.124248566988	0.003895989057
38	885687	6.126550949902	0.006198371971
38	891347	6.173130771009	0.000874115833
38	891710	6.174736934901	0.002480279725
38	892013	6.176127163779	0.003870508603
38	898540	6.215848508268	0.000856115833
38	898900	6.21729267216	0.002300279725
38	899151	6.218492796464	0.003500404029
38	905736	6.266564546077	0.000820122919
38	906043	6.267863709969	0.002119286811
38	906341	6.269154866775	0.003410443617
38	912884	6.317660685873	0.000829115833
38	913191	6.318905842679	0.002074272639
38	913489	6.320224039073	0.003392469033
38	920002	6.360436724093	0.000847115833
38	920319	6.361735887985	0.002146279725
38	920631	6.363000087149	0.003410478889
38	927154	6.412859981234	0.001054115833
38	927523	6.414385177628	0.002579312227
38	927781	6.415342301932	0.003536436531
38	934352	6.458390046515	0.001018122919
38	934721	6.459915242909	0.002543319313
38	934974	6.461088367213	0.003716443617
38	941470	6.503816201199	0.000937115833
38	941837	6.505368397593	0.002489312227
38	942098	6.506442521897	0.003563436531
38	948289	6.551616628431	0.00179456553
38	948964	6.554136235476	0.004314172575
38	949280	6.555589399368	0.005767336467
38	955810	6.606348612294	0.001090122919
38	956174	6.607828808688	0.002570319313
38	956433	6.608839932992	0.003581443617
38	962956	6.655635480344	0.000964115833
38	963323	6.657232676738	0.002561312227
38	963586	6.658576801042	0.003905436531
38	970126	6.702570274998	0.000820115833
38	970494	6.70421243889	0.002462279725
38	970755	6.705493563194	0.003743404029
38	977298	6.751024392312	0.000982122919
38	977652	6.752378595792	0.002336326399
38	977903	6.753353720096	0.003311450703
38	984425	6.794724508979	0.001063115833
38	984792	6.796213705373	0.002552312227
38	985051	6.797341829677	0.003680436531
38	991586	6.844662338952	0.001072115833
38	991907	6.846051535346	0.002461312227
38	992217	6.847387692152	0.003797469033
38	997996	6.893560419372	0.000995304691
38	998578	6.895891056373	0.003325941692
38	999094	6.898029623397	0.005464508716
38	1004569	6.947051730568	0.001365155421
38	1005146	6.949334294958	0.003647719811
38	1005569	6.950931640622	0.005245065475
38	1013028	7.004206666259	0.001569444241
38	1013396	7.005875869739	0.003238647721
38	1013660	7.007210994043	0.004573772025
38	1020178	7.055441064588	0.000847115833
38	1020543	7.05702022848	0.002426279725
38	1020805	7.058220352784	0.003626404029
38	1027322	7.1060223721	0.000964122919
38	1027639	7.107195535992	0.002137286811
38	1028106	7.109137844046	0.004079594865
38	1034478	7.150558648741	0.000946122919
38	1034846	7.152128812633	0.002516286811
38	1035263	7.153926081099	0.004313555277
38	1042371	7.20557766756	0.002010384325
38	1042836	7.207391095696	0.003823812461
38	1043346	7.209367540758	0.005800257523
38	1048960	7.253310654206	0.001155267081
38	1049673	7.256253258938	0.004097871813
38	1050078	7.257975647418	0.005820260293
38	1056009	7.306681572602	0.000964122919
38	1056573	7.30905703324	0.003339583557
38	1057065	7.311143512182	0.005426062499
38	1064063	7.362568161769	0.001325195009
38	1064675	7.365121823065	0.003878856305
38	1065711	7.369402685952	0.008159719192
38	1071001	7.412783777811	0.001197259927
38	1071513	7.414823238381	0.003236720497
38	1072114	7.417524718783	0.005938200899
38	1077579	7.459425786842	0.000991115833
38	1077938	7.461104055308	0.002669384299
38	1078394	7.463001470656	0.004566799647
38	1084769	7.502595391858	0.001036122919
38	1085021	7.503803516162	0.002244247223
38	1085374	7.505374712556	0.003815443617
38	1091915	7.54867501368	0.001090122919
38	1092224	7.550136210074	0.002551319313
38	1092522	7.55149036688	0.003905476119
38	1099026	7.594476997185	0.000793115833
38	1099346	7.595938153991	0.002254272639
38	1099656	7.597202353155	0.003518471803
38	1106157	7.640573927854	0.001000122919
38	1106370	7.6412860098	0.001712204865
38	1106785	7.64292121605	0.003347411115
38	1112309	7.688073621135	0.00147941921
38	1112947	7.69064422818	0.004050026255
38	1113726	7.693769167453	0.007174965528
38	1118784	7.733700810311	0.001290301741
38	1119514	7.736571460467	0.004160951897
38	1119936	7.738293952311	0.005883443741
38	1126012	7.783452291212	0.001408305392
38	1126581	7.785677787332	0.003633801512
38	1126986	7.787559101195	0.005515115375
38	1133380	7.837232796344	0.001800605118
38	1134140	7.840221592861	0.004789401635
38	1135070	7.843860515228	0.008428324002
38	1140166	7.884919527717	0.001081115833
38	1140473	7.886434684523	0.002596272639
38	1140771	7.887860883687	0.004022471803
38	1147314	7.931093465667	0.001054122919
38	1147668	7.932690629559	0.002651286811
38	1147919	7.933800753863	0.003761411115
38	1154462	7.981851289374	0.001090122919
38	1154816	7.983538485768	0.002777319313
38	1155067	7.984477610072	0.003716443617
38	1161646	8.024355551165	0.000847115833
38	1161959	8.025681715057	0.002173279725
38	1162257	8.027161871863	0.003653436531
38	1168785	8.068702600235	0.000901115833
38	1169153	8.070245796629	0.002444312227
38	1169418	8.071688920933	0.003887436531
38	1175812	8.126276659011	0.003118146535
38	1176288	8.128127036997	0.004968524521
38	1176598	8.129481193803	0.006322681327
38	1182520	8.185199625648	0.002696889851
38	1183208	8.187664193858	0.005161458061
38	1183826	8.189931765719	0.007429029922
38	1189809	8.241516027577	0.002074605246
38	1190593	8.244612824181	0.00517140185
38	1191062	8.24651735205	0.007075929719
38	1195912	8.288458035531	0.001307143341
38	1196593	8.29096779607	0.00381690388
38	1197007	8.292822099196	0.005671207006
38	1202966	8.338832722065	0.000829115833
38	1203337	8.340394025191	0.002390418959
38	1203809	8.342219407493	0.004215801261
38	1210110	8.387503565238	0.001072115833
38	1210476	8.38904672913	0.002615279725
38	1210739	8.390228853434	0.003797404029
38	1217252	8.432817744607	0.000856122919
38	1217622	8.434477941001	0.002516319313
38	1217883	8.435471065305	0.003509443617
38	1224399	8.483560107001	0.001027115833
38	1224719	8.485057270893	0.002524279725
38	1225029	8.486321467287	0.003788476119
38	1231585	8.53152407723	0.000946115833
38	1231948	8.533049241122	0.002471279725
38	1232199	8.534159365426	0.003581404029
38	1238739	8.581112214473	0.000973115833
38	1239096	8.582691417953	0.002552319313
38	1239347	8.584017542257	0.003878443617
38	1246034	8.632855552111	0.001646828609
38	1246446	8.634511115375	0.003302391873
38	1247154	8.637430658799	0.006221935297
38	1253017	8.678889508908	0.001045122919
38	1253337	8.680314705302	0.002470319313
38	1253643	8.681731869194	0.003887483205
38	1260172	8.7251031127	0.000901122919
38	1260542	8.726646309094	0.002444319313
38	1260805	8.727864433398	0.003662443617
38	1267329	8.776175533557	0.000901115833
38	1267695	8.777682737037	0.002408319313
38	1267957	8.778909861341	0.003635443617
38	1274474	8.826617611734	0.001036115833
38	1274892	8.828170921946	0.002589426045
38	1275315	8.829770271746	0.004188775845
38	1282431	8.880285774538	0.001578415687
38	1283092	8.883064460217	0.004357101366
38	1283913	8.886260256821	0.00755289797
38	1290116	8.93624328453	0.002565641183
38	1290798	8.93903797386	0.005360330513
38	1291214	8.940869465664	0.007191822317
38	1296663	8.989991281706	0.00128727289
38	1297070	8.99153562442	0.002831615604
38	1297734	8.99444934172	0.005745332904
38	1304218	9.047038514691	0.001004265804
38	1304572	9.048239824903	0.002205576016
38	1305240	9.051065428385	0.005031179498
38	1310905	9.100646325187	0.001356412036
38	1311366	9.102617674987	0.003327761836
38	1312542	9.107140232503	0.007850319352
38	1318149	9.154074930505	0.001197305392
38	1318755	9.156413541201	0.003535916088
38	1319167	9.157982997733	0.00510537262
38	1325096	9.201889803208	0.001540308827
38	1325651	9.204145227868	0.003795733487
38	1326158	9.206068652528	0.005719158147
38	1331985	9.252492066194	0.001579308827
38	1332551	9.254846787057	0.00393402969
38	1333050	9.257075354514	0.006162597147
38	1338981	9.297387207714	0.000883115833
38	1339393	9.299021550428	0.002517458547
38	1339890	9.300986224705	0.004482132824
38	1346184	9.342413308751	0.001072115833
38	1346505	9.343937472643	0.002596279725
38	1346814	9.345336671807	0.003995478889
38	1353313	9.391402066664	0.000775122919
38	1353680	9.392963230556	0.002336286811
38	1353942	9.39419935486	0.003572411115
38	1359539	9.437955463972	0.001018155421
38	1360142	9.440338060214	0.003400751663
38	1360919	9.44327266933	0.006335360779
38	1367393	9.492184340853	0.000965155421
38	1368076	9.494748873738	0.003529688306
38	1368643	9.497221516306	0.006002330874
38	1375153	9.541415683075	0.001691594381
38	1375781	9.543852104965	0.004128016271
38	1376203	9.545598454765	0.005874366071
38	1383614	9.597674693593	0.002205605118
38	1384090	9.599642228548	0.004173140073
38	1384399	9.600879424942	0.005410336467
38	1390757	9.649502205278	0.002033598032
38	1391283	9.651542694312	0.004074087066
38	1391544	9.652571818616	0.00510321137
38	1398072	9.701285386843	0.001135115833
38	1398439	9.702765550735	0.002615279725
38	1398701	9.704010675039	0.003860404029
38	1405259	9.752473723152	0.00210141921
38	1405575	9.753628887044	0.003256583102
38	1405883	9.754875083438	0.004502779496
38	1412814	9.807931327965	0.001700547241
38	1413396	9.810243934713	0.004013153989
38	1413859	9.812095312879	0.005864532155
38	1419169	9.856804687128	0.002087494735
38	1419946	9.859789665504	0.005072473111
38	1420733	9.862949630417	0.008232438024
38	1426662	9.913198005254	0.0018714913
38	1426979	9.914406418675	0.003079904721
38	1427560	9.916854918375	0.005528404421
38	1434395	9.97108808717	0.001459306601
38	1434964	9.973351931048	0.003723150479
38	1435963	9.977138972866	0.007510192297

