version 3
run UDP10-0-20241031-17:59:15-14592
attr configname UDP10
attr datetime 20241031-17:59:15
attr datetimef 20241031-175915
attr experiment UDP10
attr inifile omnetpp.ini
attr iterationvars ""
attr iterationvarsd ""
attr iterationvarsf ""
attr measurement ""
attr network MixedWLAN
attr processid 14592
attr repetition 0
attr replication #0
attr resultdir results
attr runnumber 0
attr seedset 0
config image-path ../../inet4.5/images
config **.numHostsTCP 0
config **.numHostsUDP 11
config network MixedWLAN
config sim-time-limit 10s
config **.mac.**.vector-recording false
config **.mac.**.bin-recording false
config **.tcp.**.vector-recording false
config **.tcp.**.bin-recording false
config **.radio.**.vector-recording false
config **.radio.**.bin-recording false
config **.constraintAreaMinX 0m
config **.constraintAreaMinY 0m
config **.constraintAreaMinZ 0m
config **.constraintAreaMaxX 50m
config **.constraintAreaMaxY 50m
config **.constraintAreaMaxZ 0m
config **.ap.wlan[*].address "\"10:00:00:00:00:00\""
config **.*host*.**.mgmt.accessPointAddress "\"10:00:00:00:00:00\""
config **.numApps 1
config **.udphost[0].app[*].typename UdpEchoApp
config **.udphost[0].app[*].localPort 3088
config **.udphost[*].app[*].typename UdpBasicApp
config **.udphost[*].app[*].destAddresses "\"udphost[0]\""
config **.udphost[*].app[*].messageLength 1500B
config **.udphost[*].app[*].sendInterval "40ms + uniform(-5ms, 5ms)"
config **.udphost[*].app[*].destPort 3088
config **.udphost[*].app[*].startTime 0s
config **.udphost[*].app[*].stopTime -1s
config **.tcphost[0].numApps 1
config **.tcphost[0].app[*].typename TcpGenericServerApp
config **.tcphost[0].app[0].localPort 1000
config **.tcphost[0].app[0].active true
config **.tcphost[*].numApps 1
config **.tcphost[*].app[*].typename TcpBasicClientApp
config **.tcphost[*].app[0].active true
config **.tcphost[*].app[0].connectAddress "\"tcphost[0]\""
config **.tcphost[*].app[0].connectPort 1000
config **.tcphost[*].app[0].startTime 0s
config **.tcphost[*].app[0].stopTime -1s
config **.tcphost[*].app[0].thinkTime 0s
config **.tcphost[*].app[0].idleInterval "40ms + uniform(-5ms, 5ms)"
config **.tcphost[*].app[0].reconnectInterval 0s
config **.tcphost[*].app[0].numRequestsPerSession 1
config **.tcphost[*].app[0].requestLength 1500B
config **.tcphost[*].app[0].replyLength 1500B
config **.wlan[*].bitrate 433.3Mbps
config **.wlan[*].mac.dcf.channelAccess.pendingQueue.packetCapacity 40
config **.wlan[*].mac.dcf.channelAccess.cwMin 20
config **.bandName "\"5 GHz (20 MHz)\""
config **.opMode "\"ac\""
config **.wlan[*].radio.antenna.numAntennas 8
config **.wlan[*].radio.transmitter.power 10mW
config **.wlan[*].radio.transmitter.headerLength 192b
config **.wlan[*].radio.transmitter.centerFrequency 5GHz
config **.wlan[*].radio.receiver.sensitivity -85dBm
config **.wlan[*].radio.receiver.snirThreshold 4dB

par MixedWLAN.visualizer.sceneVisualizer typename "\"inet.visualizer.canvas.scene.SceneCanvasVisualizer\""
par MixedWLAN.visualizer.sceneVisualizer visualizationTargetModule "\"^.^\""
par MixedWLAN.visualizer.sceneVisualizer visualizationSubjectModule "\"^.^\""
par MixedWLAN.visualizer.sceneVisualizer tags "\"\""
par MixedWLAN.visualizer.sceneVisualizer physicalEnvironmentModule "\"physicalEnvironment\""
par MixedWLAN.visualizer.sceneVisualizer networkNodeVisualizerModule "\"^.networkNodeVisualizer\""
par MixedWLAN.visualizer.sceneVisualizer axisLength "nan m"
attr mutable ""
attr unit m
par MixedWLAN.visualizer.sceneVisualizer animationSpeed 0
par MixedWLAN.visualizer.sceneVisualizer sceneMinX "nan m"
attr unit m
par MixedWLAN.visualizer.sceneVisualizer sceneMinY "nan m"
attr unit m
par MixedWLAN.visualizer.sceneVisualizer sceneMinZ "nan m"
attr unit m
par MixedWLAN.visualizer.sceneVisualizer sceneMaxX "nan m"
attr unit m
par MixedWLAN.visualizer.sceneVisualizer sceneMaxY "nan m"
attr unit m
par MixedWLAN.visualizer.sceneVisualizer sceneMaxZ "nan m"
attr unit m
par MixedWLAN.visualizer.sceneVisualizer zIndex 0
par MixedWLAN.visualizer.sceneVisualizer viewAngle "\"x right y down z out\""
attr mutable ""
par MixedWLAN.visualizer.sceneVisualizer viewScale "\"1 1\""
attr mutable ""
par MixedWLAN.visualizer.sceneVisualizer viewTranslation "\"0 0\""
attr mutable ""
par MixedWLAN.visualizer.sceneVisualizer descriptionFigure "\"\""
par MixedWLAN.visualizer.physicalEnvironmentVisualizer typename "\"inet.visualizer.canvas.environment.PhysicalEnvironmentCanvasVisualizer\""
par MixedWLAN.visualizer.physicalEnvironmentVisualizer visualizationTargetModule "\"^.^\""
par MixedWLAN.visualizer.physicalEnvironmentVisualizer visualizationSubjectModule "\"^.^\""
par MixedWLAN.visualizer.physicalEnvironmentVisualizer tags "\"\""
par MixedWLAN.visualizer.physicalEnvironmentVisualizer physicalEnvironmentModule "\"physicalEnvironment\""
par MixedWLAN.visualizer.physicalEnvironmentVisualizer displayObjects true
par MixedWLAN.visualizer.physicalEnvironmentVisualizer zIndex 0
par MixedWLAN.visualizer.networkNodeVisualizer typename "\"inet.visualizer.canvas.scene.NetworkNodeCanvasVisualizer\""
par MixedWLAN.visualizer.networkNodeVisualizer visualizationTargetModule "\"^.^\""
par MixedWLAN.visualizer.networkNodeVisualizer visualizationSubjectModule "\"^.^\""
par MixedWLAN.visualizer.networkNodeVisualizer tags "\"\""
par MixedWLAN.visualizer.networkNodeVisualizer nodeFilter "\"*\""
attr mutable ""
par MixedWLAN.visualizer.networkNodeVisualizer annotationSpacing 4
par MixedWLAN.visualizer.networkNodeVisualizer placementPenalty 10
par MixedWLAN.visualizer.networkNodeVisualizer zIndex 0
par MixedWLAN.visualizer.networkConnectionVisualizer typename "\"inet.visualizer.canvas.scene.NetworkConnectionCanvasVisualizer\""
par MixedWLAN.visualizer.networkConnectionVisualizer visualizationTargetModule "\"^.^\""
par MixedWLAN.visualizer.networkConnectionVisualizer visualizationSubjectModule "\"^.^\""
par MixedWLAN.visualizer.networkConnectionVisualizer tags "\"\""
par MixedWLAN.visualizer.networkConnectionVisualizer displayNetworkConnections true
par MixedWLAN.visualizer.networkConnectionVisualizer nodeFilter "\"\""
attr mutable ""
par MixedWLAN.visualizer.networkConnectionVisualizer lineColor "\"black\""
par MixedWLAN.visualizer.networkConnectionVisualizer lineStyle "\"solid\""
par MixedWLAN.visualizer.networkConnectionVisualizer lineWidth 1
par MixedWLAN.visualizer.networkConnectionVisualizer zIndex 0
par MixedWLAN.visualizer.mobilityVisualizer typename "\"inet.visualizer.canvas.mobility.MobilityCanvasVisualizer\""
par MixedWLAN.visualizer.mobilityVisualizer visualizationTargetModule "\"^.^\""
par MixedWLAN.visualizer.mobilityVisualizer visualizationSubjectModule "\"^.^\""
par MixedWLAN.visualizer.mobilityVisualizer tags "\"\""
par MixedWLAN.visualizer.mobilityVisualizer networkNodeVisualizerModule "\"^.networkNodeVisualizer\""
par MixedWLAN.visualizer.mobilityVisualizer displayMobility true
par MixedWLAN.visualizer.mobilityVisualizer animationSpeed 0
par MixedWLAN.visualizer.mobilityVisualizer moduleFilter "\"**.mobility\""
attr mutable ""
par MixedWLAN.visualizer.mobilityVisualizer displayPositions false
par MixedWLAN.visualizer.mobilityVisualizer positionCircleRadius 4
par MixedWLAN.visualizer.mobilityVisualizer positionCircleLineWidth 1
par MixedWLAN.visualizer.mobilityVisualizer positionCircleLineColor "\"dark\""
attr enum light,dark
par MixedWLAN.visualizer.mobilityVisualizer positionCircleFillColor "\"dark\""
attr enum light,dark
par MixedWLAN.visualizer.mobilityVisualizer displayOrientations false
par MixedWLAN.visualizer.mobilityVisualizer orientationPieRadius 32
par MixedWLAN.visualizer.mobilityVisualizer orientationPieSize 0.2
par MixedWLAN.visualizer.mobilityVisualizer orientationPieOpacity 0.25
par MixedWLAN.visualizer.mobilityVisualizer orientationLineColor "\"black\""
par MixedWLAN.visualizer.mobilityVisualizer orientationLineStyle "\"solid\""
par MixedWLAN.visualizer.mobilityVisualizer orientationLineWidth 1
par MixedWLAN.visualizer.mobilityVisualizer orientationFillColor "\"blue\""
par MixedWLAN.visualizer.mobilityVisualizer displayVelocities false
par MixedWLAN.visualizer.mobilityVisualizer velocityArrowScale 1
par MixedWLAN.visualizer.mobilityVisualizer velocityLineColor "\"black\""
par MixedWLAN.visualizer.mobilityVisualizer velocityLineStyle "\"solid\""
par MixedWLAN.visualizer.mobilityVisualizer velocityLineWidth 1
par MixedWLAN.visualizer.mobilityVisualizer displayMovementTrails false
par MixedWLAN.visualizer.mobilityVisualizer movementTrailLineColor "\"dark\""
attr enum light,dark
par MixedWLAN.visualizer.mobilityVisualizer movementTrailLineStyle "\"solid\""
par MixedWLAN.visualizer.mobilityVisualizer movementTrailLineWidth 1
par MixedWLAN.visualizer.mobilityVisualizer trailLength 100
par MixedWLAN.visualizer.mobilityVisualizer zIndex 0
par MixedWLAN.visualizer.statisticVisualizer typename "\"inet.visualizer.canvas.common.StatisticCanvasVisualizer\""
par MixedWLAN.visualizer.statisticVisualizer visualizationTargetModule "\"^.^\""
par MixedWLAN.visualizer.statisticVisualizer visualizationSubjectModule "\"^.^\""
par MixedWLAN.visualizer.statisticVisualizer tags "\"\""
par MixedWLAN.visualizer.statisticVisualizer networkNodeVisualizerModule "\"^.networkNodeVisualizer\""
par MixedWLAN.visualizer.statisticVisualizer displayStatistics true
par MixedWLAN.visualizer.statisticVisualizer signalName "\"\""
par MixedWLAN.visualizer.statisticVisualizer statisticName "\"\""
par MixedWLAN.visualizer.statisticVisualizer statisticUnit "\"\""
par MixedWLAN.visualizer.statisticVisualizer statisticExpression "\"\""
par MixedWLAN.visualizer.statisticVisualizer sourceFilter "\"**\""
attr mutable ""
par MixedWLAN.visualizer.statisticVisualizer format "\"%n: %v %u\""
attr mutable ""
par MixedWLAN.visualizer.statisticVisualizer unit "\"\""
par MixedWLAN.visualizer.statisticVisualizer font "\"<default>\""
par MixedWLAN.visualizer.statisticVisualizer textColor "\"black\""
par MixedWLAN.visualizer.statisticVisualizer backgroundColor "\"white\""
par MixedWLAN.visualizer.statisticVisualizer opacity 1
par MixedWLAN.visualizer.statisticVisualizer placementHint "\"top\""
par MixedWLAN.visualizer.statisticVisualizer placementPriority 0
par MixedWLAN.visualizer.statisticVisualizer zIndex 10
par MixedWLAN.visualizer.statisticVisualizer propertyName "\"\""
par MixedWLAN.visualizer.statisticVisualizer propertyIndex "\"\""
par MixedWLAN.visualizer.infoVisualizer typename "\"inet.visualizer.canvas.common.InfoCanvasVisualizer\""
par MixedWLAN.visualizer.infoVisualizer visualizationTargetModule "\"^.^\""
par MixedWLAN.visualizer.infoVisualizer visualizationSubjectModule "\"^.^\""
par MixedWLAN.visualizer.infoVisualizer tags "\"\""
par MixedWLAN.visualizer.infoVisualizer networkNodeVisualizerModule "\"^.networkNodeVisualizer\""
par MixedWLAN.visualizer.infoVisualizer displayInfos true
par MixedWLAN.visualizer.infoVisualizer modules "\"\""
attr mutable ""
par MixedWLAN.visualizer.infoVisualizer format "\"%t\""
attr mutable ""
par MixedWLAN.visualizer.infoVisualizer font "\"<default>\""
par MixedWLAN.visualizer.infoVisualizer textColor "\"black\""
par MixedWLAN.visualizer.infoVisualizer backgroundColor "\"white\""
par MixedWLAN.visualizer.infoVisualizer opacity 1
par MixedWLAN.visualizer.infoVisualizer placementHint "\"top\""
par MixedWLAN.visualizer.infoVisualizer placementPriority 0
par MixedWLAN.visualizer.infoVisualizer zIndex 10
par MixedWLAN.visualizer.energyStorageVisualizer typename "\"inet.visualizer.canvas.power.EnergyStorageCanvasVisualizer\""
par MixedWLAN.visualizer.energyStorageVisualizer visualizationTargetModule "\"^.^\""
par MixedWLAN.visualizer.energyStorageVisualizer visualizationSubjectModule "\"^.^\""
par MixedWLAN.visualizer.energyStorageVisualizer tags "\"\""
par MixedWLAN.visualizer.energyStorageVisualizer networkNodeVisualizerModule "\"^.networkNodeVisualizer\""
par MixedWLAN.visualizer.energyStorageVisualizer displayEnergyStorages false
par MixedWLAN.visualizer.energyStorageVisualizer energyStorageFilter "\"**\""
par MixedWLAN.visualizer.energyStorageVisualizer color "\"green\""
par MixedWLAN.visualizer.energyStorageVisualizer width 8
par MixedWLAN.visualizer.energyStorageVisualizer height 24
par MixedWLAN.visualizer.energyStorageVisualizer spacing 2
par MixedWLAN.visualizer.energyStorageVisualizer placementHint "\"right\""
par MixedWLAN.visualizer.energyStorageVisualizer placementPriority 0
par MixedWLAN.visualizer.energyStorageVisualizer zIndex 10
par MixedWLAN.visualizer.mediumVisualizer typename "\"inet.visualizer.canvas.physicallayer.MediumCanvasVisualizer\""
par MixedWLAN.visualizer.mediumVisualizer visualizationTargetModule "\"^.^\""
par MixedWLAN.visualizer.mediumVisualizer visualizationSubjectModule "\"^.^\""
par MixedWLAN.visualizer.mediumVisualizer tags "\"\""
par MixedWLAN.visualizer.mediumVisualizer mediumModule "\"radioMedium\""
par MixedWLAN.visualizer.mediumVisualizer networkNodeVisualizerModule "\"^.networkNodeVisualizer\""
par MixedWLAN.visualizer.mediumVisualizer nodeFilter "\"*\""
attr mutable ""
par MixedWLAN.visualizer.mediumVisualizer interfaceFilter "\"*\""
attr mutable ""
par MixedWLAN.visualizer.mediumVisualizer packetFilter "(omnetpp::cValueHolder)holder: \"*\""
attr mutable ""
par MixedWLAN.visualizer.mediumVisualizer displaySignals false
par MixedWLAN.visualizer.mediumVisualizer signalColor "\"dark\""
attr enum light,dark
par MixedWLAN.visualizer.mediumVisualizer signalPropagationAnimationSpeed "nan "
attr mutable ""
par MixedWLAN.visualizer.mediumVisualizer signalPropagationAnimationTime 1s
attr unit s
par MixedWLAN.visualizer.mediumVisualizer signalPropagationAdditionalTime 0s
attr unit s
par MixedWLAN.visualizer.mediumVisualizer signalTransmissionAnimationSpeed "nan "
attr mutable ""
par MixedWLAN.visualizer.mediumVisualizer signalTransmissionAnimationTime 1s
attr unit s
par MixedWLAN.visualizer.mediumVisualizer signalAnimationSpeedChangeTimeMode "\"realTime\""
attr enum realTime,animationTime,simulationTime
par MixedWLAN.visualizer.mediumVisualizer signalAnimationSpeedChangeTime 1s
attr unit s
par MixedWLAN.visualizer.mediumVisualizer displaySignalDepartures false
par MixedWLAN.visualizer.mediumVisualizer signalDepartureImage "\"misc/signal_departure.png\""
par MixedWLAN.visualizer.mediumVisualizer signalDeparturePlacementHint "\"topCenter\""
par MixedWLAN.visualizer.mediumVisualizer signalDeparturePlacementPriority 1
par MixedWLAN.visualizer.mediumVisualizer displaySignalArrivals false
par MixedWLAN.visualizer.mediumVisualizer signalArrivalImage "\"misc/signal_arrival.png\""
par MixedWLAN.visualizer.mediumVisualizer signalArrivalPlacementHint "\"topCenter\""
par MixedWLAN.visualizer.mediumVisualizer signalArrivalPlacementPriority -1
par MixedWLAN.visualizer.mediumVisualizer displayCommunicationRanges false
par MixedWLAN.visualizer.mediumVisualizer communicationRangeLineColor "\"blue\""
par MixedWLAN.visualizer.mediumVisualizer communicationRangeLineStyle "\"solid\""
par MixedWLAN.visualizer.mediumVisualizer communicationRangeLineWidth 1
par MixedWLAN.visualizer.mediumVisualizer displayInterferenceRanges false
par MixedWLAN.visualizer.mediumVisualizer interferenceRangeLineColor "\"gray\""
par MixedWLAN.visualizer.mediumVisualizer interferenceRangeLineStyle "\"solid\""
par MixedWLAN.visualizer.mediumVisualizer interferenceRangeLineWidth 1
par MixedWLAN.visualizer.mediumVisualizer autoPowerAxis true
par MixedWLAN.visualizer.mediumVisualizer signalMinPower "inf dBmW"
attr unit dBmW
par MixedWLAN.visualizer.mediumVisualizer signalMaxPower 0dBmW
attr unit dBmW
par MixedWLAN.visualizer.mediumVisualizer signalMinPowerDensity "inf dBmWpMHz"
attr unit dBmWpMHz
par MixedWLAN.visualizer.mediumVisualizer signalMaxPowerDensity "-inf dBmWpMHz"
attr unit dBmWpMHz
par MixedWLAN.visualizer.mediumVisualizer autoTimeAxis true
par MixedWLAN.visualizer.mediumVisualizer signalMinTime 0s
attr unit s
par MixedWLAN.visualizer.mediumVisualizer signalMaxTime 0s
attr unit s
par MixedWLAN.visualizer.mediumVisualizer autoFrequencyAxis true
par MixedWLAN.visualizer.mediumVisualizer signalMinFrequency "inf Hz"
attr unit Hz
par MixedWLAN.visualizer.mediumVisualizer signalMaxFrequency "-inf Hz"
attr unit Hz
par MixedWLAN.visualizer.mediumVisualizer displayMainPowerDensityMap false
par MixedWLAN.visualizer.mediumVisualizer mainPowerDensityMapPixmapDensity 1
par MixedWLAN.visualizer.mediumVisualizer mainPowerDensityMapMinX 0
par MixedWLAN.visualizer.mediumVisualizer mainPowerDensityMapMaxX "nan "
par MixedWLAN.visualizer.mediumVisualizer mainPowerDensityMapMinY 0
par MixedWLAN.visualizer.mediumVisualizer mainPowerDensityMapMaxY "nan "
par MixedWLAN.visualizer.mediumVisualizer mainPowerDensityMapZ 0
par MixedWLAN.visualizer.mediumVisualizer mainPowerDensityMapFigureXTickCount 3
par MixedWLAN.visualizer.mediumVisualizer mainPowerDensityMapFigureYTickCount 3
par MixedWLAN.visualizer.mediumVisualizer displayPowerDensityMaps false
par MixedWLAN.visualizer.mediumVisualizer powerDensityMapMode "\"auto\""
attr enum total,signal,auto
par MixedWLAN.visualizer.mediumVisualizer powerDensityMapPixelMode "\"mean\""
attr enum sample,partition,mean
par MixedWLAN.visualizer.mediumVisualizer powerDensityMapApproximationSize 10
par MixedWLAN.visualizer.mediumVisualizer powerDensityMapCenterFrequency "nan Hz"
attr mutable ""
attr unit Hz
par MixedWLAN.visualizer.mediumVisualizer powerDensityMapBandwidth 0Hz
attr mutable ""
attr unit Hz
par MixedWLAN.visualizer.mediumVisualizer powerDensityMapFigureWidth 200
par MixedWLAN.visualizer.mediumVisualizer powerDensityMapFigureHeight 120
par MixedWLAN.visualizer.mediumVisualizer powerDensityMapPixmapWidth 200
par MixedWLAN.visualizer.mediumVisualizer powerDensityMapPixmapHeight 120
par MixedWLAN.visualizer.mediumVisualizer powerDensityMapZ 0
par MixedWLAN.visualizer.mediumVisualizer powerDensityMapFigureXTickCount 3
par MixedWLAN.visualizer.mediumVisualizer powerDensityMapFigureYTickCount 3
par MixedWLAN.visualizer.mediumVisualizer displaySpectrums false
par MixedWLAN.visualizer.mediumVisualizer spectrumMode "\"auto\""
attr enum total,signal,auto
par MixedWLAN.visualizer.mediumVisualizer spectrumFigureWidth 200
par MixedWLAN.visualizer.mediumVisualizer spectrumFigureHeight 120
par MixedWLAN.visualizer.mediumVisualizer spectrumFigureXTickCount 3
par MixedWLAN.visualizer.mediumVisualizer spectrumFigureYTickCount 5
par MixedWLAN.visualizer.mediumVisualizer spectrumFigureInterpolationSize 5
par MixedWLAN.visualizer.mediumVisualizer spectrumPlacementHint "\"bottomCenter\""
par MixedWLAN.visualizer.mediumVisualizer spectrumPlacementPriority -1
par MixedWLAN.visualizer.mediumVisualizer displaySpectrograms false
par MixedWLAN.visualizer.mediumVisualizer spectrogramMode "\"auto\""
attr enum total,signal,auto
par MixedWLAN.visualizer.mediumVisualizer spectrogramPixelMode "\"mean\""
attr enum sample,partition,mean
par MixedWLAN.visualizer.mediumVisualizer spectrogramFigureWidth 200
par MixedWLAN.visualizer.mediumVisualizer spectrogramFigureHeight 120
par MixedWLAN.visualizer.mediumVisualizer spectrogramPixmapWidth 200
par MixedWLAN.visualizer.mediumVisualizer spectrogramPixmapHeight 120
par MixedWLAN.visualizer.mediumVisualizer spectrogramFigureXTickCount 3
par MixedWLAN.visualizer.mediumVisualizer spectrogramFigureYTickCount 5
par MixedWLAN.visualizer.mediumVisualizer spectrogramPlacementHint "\"bottomCenter\""
par MixedWLAN.visualizer.mediumVisualizer spectrogramPlacementPriority -1
par MixedWLAN.visualizer.mediumVisualizer zIndex 0
par MixedWLAN.visualizer.mediumVisualizer signalShape "\"ring\""
attr enum ring,sphere
par MixedWLAN.visualizer.mediumVisualizer signalOpacity 0.5
par MixedWLAN.visualizer.mediumVisualizer signalRingCount 20
par MixedWLAN.visualizer.mediumVisualizer signalRingSize 50m
attr unit m
par MixedWLAN.visualizer.mediumVisualizer signalFadingDistance 50m
attr unit m
par MixedWLAN.visualizer.mediumVisualizer signalFadingFactor 1.2
par MixedWLAN.visualizer.mediumVisualizer signalWaveCount 20
par MixedWLAN.visualizer.mediumVisualizer signalWaveLength 50m
attr unit m
par MixedWLAN.visualizer.mediumVisualizer signalWaveWidth 10m
attr unit m
par MixedWLAN.visualizer.mediumVisualizer signalWaveFadingAnimationSpeedFactor 1
par MixedWLAN.visualizer.mediumVisualizer displayCommunicationHeat false
par MixedWLAN.visualizer.obstacleLossVisualizer typename "\"inet.visualizer.canvas.physicallayer.TracingObstacleLossCanvasVisualizer\""
par MixedWLAN.visualizer.obstacleLossVisualizer visualizationTargetModule "\"^.^\""
par MixedWLAN.visualizer.obstacleLossVisualizer visualizationSubjectModule "\"^.^\""
par MixedWLAN.visualizer.obstacleLossVisualizer tags "\"\""
par MixedWLAN.visualizer.obstacleLossVisualizer displayIntersections false
par MixedWLAN.visualizer.obstacleLossVisualizer intersectionLineColor "\"red\""
par MixedWLAN.visualizer.obstacleLossVisualizer intersectionLineStyle "\"solid\""
par MixedWLAN.visualizer.obstacleLossVisualizer intersectionLineWidth 1
par MixedWLAN.visualizer.obstacleLossVisualizer displayFaceNormalVectors false
par MixedWLAN.visualizer.obstacleLossVisualizer faceNormalLineColor "\"grey\""
par MixedWLAN.visualizer.obstacleLossVisualizer faceNormalLineStyle "\"solid\""
par MixedWLAN.visualizer.obstacleLossVisualizer faceNormalLineWidth 1
par MixedWLAN.visualizer.obstacleLossVisualizer fadeOutMode "\"realTime\""
attr enum realTime,animationTime,simulationTime
par MixedWLAN.visualizer.obstacleLossVisualizer fadeOutTime 1s
attr unit s
par MixedWLAN.visualizer.obstacleLossVisualizer fadeOutAnimationSpeed 0
par MixedWLAN.visualizer.obstacleLossVisualizer zIndex 0
par MixedWLAN.visualizer.packetDropVisualizer typename "\"inet.visualizer.canvas.common.PacketDropCanvasVisualizer\""
par MixedWLAN.visualizer.packetDropVisualizer visualizationTargetModule "\"^.^\""
par MixedWLAN.visualizer.packetDropVisualizer visualizationSubjectModule "\"^.^\""
par MixedWLAN.visualizer.packetDropVisualizer tags "\"\""
par MixedWLAN.visualizer.packetDropVisualizer displayPacketDrops false
par MixedWLAN.visualizer.packetDropVisualizer nodeFilter "\"*\""
attr mutable ""
par MixedWLAN.visualizer.packetDropVisualizer interfaceFilter "\"*\""
attr mutable ""
par MixedWLAN.visualizer.packetDropVisualizer packetFilter "(omnetpp::cValueHolder)holder: \"*\""
attr mutable ""
par MixedWLAN.visualizer.packetDropVisualizer detailsFilter "\"*\""
attr mutable ""
par MixedWLAN.visualizer.packetDropVisualizer icon "\"msg/packet_s\""
par MixedWLAN.visualizer.packetDropVisualizer iconTintAmount 1
par MixedWLAN.visualizer.packetDropVisualizer iconTintColor "\"dark\""
par MixedWLAN.visualizer.packetDropVisualizer labelFormat "\"%n\""
attr mutable ""
par MixedWLAN.visualizer.packetDropVisualizer labelFont "\"<default>\""
par MixedWLAN.visualizer.packetDropVisualizer labelColor "\"black\""
par MixedWLAN.visualizer.packetDropVisualizer fadeOutMode "\"realTime\""
attr enum realTime,animationTime,simulationTime
par MixedWLAN.visualizer.packetDropVisualizer fadeOutTime 1s
attr unit s
par MixedWLAN.visualizer.packetDropVisualizer fadeOutAnimationSpeed 0
par MixedWLAN.visualizer.packetDropVisualizer zIndex 10
par MixedWLAN.visualizer.packetDropVisualizer dx 32
par MixedWLAN.visualizer.packetDropVisualizer dy 64
par MixedWLAN.visualizer.packetFlowVisualizer typename "\"inet.visualizer.canvas.flow.PacketFlowCanvasVisualizer\""
par MixedWLAN.visualizer.packetFlowVisualizer visualizationTargetModule "\"^.^\""
par MixedWLAN.visualizer.packetFlowVisualizer visualizationSubjectModule "\"^.^\""
par MixedWLAN.visualizer.packetFlowVisualizer tags "\"\""
par MixedWLAN.visualizer.packetFlowVisualizer displayRoutes false
par MixedWLAN.visualizer.packetFlowVisualizer startPathSignal "\"packetFlowStarted\""
par MixedWLAN.visualizer.packetFlowVisualizer extendPathSignal "\"packetReceivedFromLower\""
par MixedWLAN.visualizer.packetFlowVisualizer endPathSignal "\"packetFlowEnded\""
par MixedWLAN.visualizer.packetFlowVisualizer nodeFilter "\"*\""
attr mutable ""
par MixedWLAN.visualizer.packetFlowVisualizer packetFilter "(omnetpp::cValueHolder)holder: \"*\""
attr mutable ""
par MixedWLAN.visualizer.packetFlowVisualizer lineColor "\"dark\""
attr enum light,dark
par MixedWLAN.visualizer.packetFlowVisualizer lineStyle "\"dashed\""
par MixedWLAN.visualizer.packetFlowVisualizer lineWidth 3
par MixedWLAN.visualizer.packetFlowVisualizer lineSmooth false
par MixedWLAN.visualizer.packetFlowVisualizer lineShift 16
par MixedWLAN.visualizer.packetFlowVisualizer lineShiftMode "\"normal\""
par MixedWLAN.visualizer.packetFlowVisualizer lineContactSpacing 3
par MixedWLAN.visualizer.packetFlowVisualizer lineContactMode "\"rectangular\""
attr enum circular,rectangular
par MixedWLAN.visualizer.packetFlowVisualizer labelFormat "\"%L %p pk (%l)\""
par MixedWLAN.visualizer.packetFlowVisualizer labelFont "\"<default>, 8px\""
par MixedWLAN.visualizer.packetFlowVisualizer labelColor "\"\""
par MixedWLAN.visualizer.packetFlowVisualizer fadeOutMode "\"realTime\""
attr enum realTime,animationTime,simulationTime
par MixedWLAN.visualizer.packetFlowVisualizer fadeOutTime 0s
attr unit s
par MixedWLAN.visualizer.packetFlowVisualizer fadeOutAnimationSpeed 0
par MixedWLAN.visualizer.packetFlowVisualizer zIndex 4
par MixedWLAN.visualizer.queueVisualizer typename "\"inet.visualizer.canvas.common.QueueCanvasVisualizer\""
par MixedWLAN.visualizer.queueVisualizer visualizationTargetModule "\"^.^\""
par MixedWLAN.visualizer.queueVisualizer visualizationSubjectModule "\"^.^\""
par MixedWLAN.visualizer.queueVisualizer tags "\"\""
par MixedWLAN.visualizer.queueVisualizer networkNodeVisualizerModule "\"^.networkNodeVisualizer\""
par MixedWLAN.visualizer.queueVisualizer displayQueues false
par MixedWLAN.visualizer.queueVisualizer queueFilter "\"**\""
par MixedWLAN.visualizer.queueVisualizer color "\"blue\""
par MixedWLAN.visualizer.queueVisualizer width 8
par MixedWLAN.visualizer.queueVisualizer height 24
par MixedWLAN.visualizer.queueVisualizer spacing 2
par MixedWLAN.visualizer.queueVisualizer placementHint "\"right\""
par MixedWLAN.visualizer.queueVisualizer placementPriority 0
par MixedWLAN.visualizer.queueVisualizer zIndex 10
par MixedWLAN.visualizer.gateScheduleVisualizer typename "\"inet.visualizer.canvas.common.GateScheduleCanvasVisualizer\""
par MixedWLAN.visualizer.gateScheduleVisualizer visualizationTargetModule "\"^.^\""
par MixedWLAN.visualizer.gateScheduleVisualizer visualizationSubjectModule "\"^.^\""
par MixedWLAN.visualizer.gateScheduleVisualizer tags "\"\""
par MixedWLAN.visualizer.gateScheduleVisualizer networkNodeVisualizerModule "\"^.networkNodeVisualizer\""
par MixedWLAN.visualizer.gateScheduleVisualizer displayGateSchedules false
par MixedWLAN.visualizer.gateScheduleVisualizer labelFormat "\"%i %D\""
par MixedWLAN.visualizer.gateScheduleVisualizer gateFilter "\"**\""
par MixedWLAN.visualizer.gateScheduleVisualizer width 100
par MixedWLAN.visualizer.gateScheduleVisualizer height 8
par MixedWLAN.visualizer.gateScheduleVisualizer spacing 2
par MixedWLAN.visualizer.gateScheduleVisualizer placementHint "\"right\""
par MixedWLAN.visualizer.gateScheduleVisualizer placementPriority 0
par MixedWLAN.visualizer.gateScheduleVisualizer displayDuration 0s
attr mutable ""
attr unit s
par MixedWLAN.visualizer.gateScheduleVisualizer currentTimePosition 50
par MixedWLAN.visualizer.gateScheduleVisualizer zIndex 10
par MixedWLAN.visualizer.radioVisualizer typename "\"inet.visualizer.canvas.physicallayer.RadioCanvasVisualizer\""
par MixedWLAN.visualizer.radioVisualizer visualizationTargetModule "\"^.^\""
par MixedWLAN.visualizer.radioVisualizer visualizationSubjectModule "\"^.^\""
par MixedWLAN.visualizer.radioVisualizer tags "\"\""
par MixedWLAN.visualizer.radioVisualizer networkNodeVisualizerModule "\"^.networkNodeVisualizer\""
par MixedWLAN.visualizer.radioVisualizer displayRadios false
par MixedWLAN.visualizer.radioVisualizer displayRadioMode true
par MixedWLAN.visualizer.radioVisualizer displayReceptionState true
par MixedWLAN.visualizer.radioVisualizer displayTransmissionState true
par MixedWLAN.visualizer.radioVisualizer displayAntennaLobes false
par MixedWLAN.visualizer.radioVisualizer radioFilter "\"**\""
attr mutable ""
par MixedWLAN.visualizer.radioVisualizer radioModeImages "\"block/process_vs block/timer_vs block/wrx_vs block/wtx_vs block/wrxtx_vs block/cogwheel_vs\""
par MixedWLAN.visualizer.radioVisualizer receptionStateImages "\"- - misc/receiving misc/receiving\""
par MixedWLAN.visualizer.radioVisualizer transmissionStateImages "\"- - misc/transmitting\""
par MixedWLAN.visualizer.radioVisualizer width 16
par MixedWLAN.visualizer.radioVisualizer height 16
par MixedWLAN.visualizer.radioVisualizer placementHint "\"bottomRight\""
par MixedWLAN.visualizer.radioVisualizer placementPriority 0
par MixedWLAN.visualizer.radioVisualizer antennaLobeNormalize false
par MixedWLAN.visualizer.radioVisualizer antennaLobeRelativeLabels false
par MixedWLAN.visualizer.radioVisualizer antennaLobePlaneGlobal true
par MixedWLAN.visualizer.radioVisualizer antennaLobePlane "\"view\""
attr enum view,xy,xz,yz
par MixedWLAN.visualizer.radioVisualizer antennaLobeMode "\"logarithmic\""
attr enum logarithmic,linear
par MixedWLAN.visualizer.radioVisualizer antennaLobeLogarithmicBase 10
par MixedWLAN.visualizer.radioVisualizer antennaLobeLogarithmicScale 100
par MixedWLAN.visualizer.radioVisualizer antennaLobeRadius 100
par MixedWLAN.visualizer.radioVisualizer antennaLobeStep 10deg
attr unit deg
par MixedWLAN.visualizer.radioVisualizer antennaLobeOpacity 0.25
par MixedWLAN.visualizer.radioVisualizer antennaLobeLineSmooth true
par MixedWLAN.visualizer.radioVisualizer antennaLobeLineColor "\"black\""
par MixedWLAN.visualizer.radioVisualizer antennaLobeLineStyle "\"solid\""
par MixedWLAN.visualizer.radioVisualizer antennaLobeLineWidth 1
par MixedWLAN.visualizer.radioVisualizer antennaLobeFillColor "\"white\""
par MixedWLAN.visualizer.radioVisualizer zIndex 10
par MixedWLAN.visualizer.physicalLinkVisualizer typename "\"inet.visualizer.canvas.physicallayer.PhysicalLinkCanvasVisualizer\""
par MixedWLAN.visualizer.physicalLinkVisualizer visualizationTargetModule "\"^.^\""
par MixedWLAN.visualizer.physicalLinkVisualizer visualizationSubjectModule "\"^.^\""
par MixedWLAN.visualizer.physicalLinkVisualizer tags "\"\""
par MixedWLAN.visualizer.physicalLinkVisualizer displayLinks false
par MixedWLAN.visualizer.physicalLinkVisualizer activityLevel "\"service\""
attr enum service,peer,protocol
par MixedWLAN.visualizer.physicalLinkVisualizer nodeFilter "\"*\""
attr mutable ""
par MixedWLAN.visualizer.physicalLinkVisualizer interfaceFilter "\"*\""
attr mutable ""
par MixedWLAN.visualizer.physicalLinkVisualizer packetFilter "(omnetpp::cValueHolder)holder: \"*\""
attr mutable ""
par MixedWLAN.visualizer.physicalLinkVisualizer lineColor "\"olive\""
par MixedWLAN.visualizer.physicalLinkVisualizer lineStyle "\"dotted\""
par MixedWLAN.visualizer.physicalLinkVisualizer lineWidth 3
par MixedWLAN.visualizer.physicalLinkVisualizer lineShift 16
par MixedWLAN.visualizer.physicalLinkVisualizer lineShiftMode "\"normal\""
par MixedWLAN.visualizer.physicalLinkVisualizer lineContactSpacing 3
par MixedWLAN.visualizer.physicalLinkVisualizer lineContactMode "\"rectangular\""
attr enum circular,rectangular
par MixedWLAN.visualizer.physicalLinkVisualizer labelFormat "\"%n\""
par MixedWLAN.visualizer.physicalLinkVisualizer labelFont "\"<default>, 8px\""
par MixedWLAN.visualizer.physicalLinkVisualizer labelColor "\"olive\""
par MixedWLAN.visualizer.physicalLinkVisualizer fadeOutMode "\"realTime\""
attr enum realTime,animationTime,simulationTime
par MixedWLAN.visualizer.physicalLinkVisualizer fadeOutTime 1s
attr unit s
par MixedWLAN.visualizer.physicalLinkVisualizer fadeOutAnimationSpeed 0
par MixedWLAN.visualizer.physicalLinkVisualizer holdAnimationTime 0s
attr unit s
par MixedWLAN.visualizer.physicalLinkVisualizer zIndex 1
par MixedWLAN.visualizer.interfaceTableVisualizer typename "\"inet.visualizer.canvas.linklayer.InterfaceTableCanvasVisualizer\""
par MixedWLAN.visualizer.interfaceTableVisualizer visualizationTargetModule "\"^.^\""
par MixedWLAN.visualizer.interfaceTableVisualizer visualizationSubjectModule "\"^.^\""
par MixedWLAN.visualizer.interfaceTableVisualizer tags "\"\""
par MixedWLAN.visualizer.interfaceTableVisualizer networkNodeVisualizerModule "\"^.networkNodeVisualizer\""
par MixedWLAN.visualizer.interfaceTableVisualizer displayInterfaceTables false
par MixedWLAN.visualizer.interfaceTableVisualizer displayWiredInterfacesAtConnections true
par MixedWLAN.visualizer.interfaceTableVisualizer displayBackground false
par MixedWLAN.visualizer.interfaceTableVisualizer nodeFilter "\"*\""
attr mutable ""
par MixedWLAN.visualizer.interfaceTableVisualizer interfaceFilter "\"not(lo*)\""
attr mutable ""
par MixedWLAN.visualizer.interfaceTableVisualizer format "\"%N %\\\\%a%/%l\""
attr mutable ""
par MixedWLAN.visualizer.interfaceTableVisualizer placementHint "\"top\""
par MixedWLAN.visualizer.interfaceTableVisualizer placementPriority 0
par MixedWLAN.visualizer.interfaceTableVisualizer font "\"<default>\""
par MixedWLAN.visualizer.interfaceTableVisualizer textColor "\"#005030\""
par MixedWLAN.visualizer.interfaceTableVisualizer backgroundColor "\"white\""
par MixedWLAN.visualizer.interfaceTableVisualizer opacity 1
par MixedWLAN.visualizer.interfaceTableVisualizer zIndex 10
par MixedWLAN.visualizer.dataLinkVisualizer typename "\"inet.visualizer.canvas.linklayer.DataLinkCanvasVisualizer\""
par MixedWLAN.visualizer.dataLinkVisualizer visualizationTargetModule "\"^.^\""
par MixedWLAN.visualizer.dataLinkVisualizer visualizationSubjectModule "\"^.^\""
par MixedWLAN.visualizer.dataLinkVisualizer tags "\"\""
par MixedWLAN.visualizer.dataLinkVisualizer displayLinks false
par MixedWLAN.visualizer.dataLinkVisualizer activityLevel "\"service\""
attr enum service,peer,protocol
par MixedWLAN.visualizer.dataLinkVisualizer nodeFilter "\"*\""
attr mutable ""
par MixedWLAN.visualizer.dataLinkVisualizer interfaceFilter "\"*\""
attr mutable ""
par MixedWLAN.visualizer.dataLinkVisualizer packetFilter "(omnetpp::cValueHolder)holder: \"*\""
attr mutable ""
par MixedWLAN.visualizer.dataLinkVisualizer lineColor "\"darkcyan\""
par MixedWLAN.visualizer.dataLinkVisualizer lineStyle "\"solid\""
par MixedWLAN.visualizer.dataLinkVisualizer lineWidth 3
par MixedWLAN.visualizer.dataLinkVisualizer lineShift 16
par MixedWLAN.visualizer.dataLinkVisualizer lineShiftMode "\"normal\""
par MixedWLAN.visualizer.dataLinkVisualizer lineContactSpacing 3
par MixedWLAN.visualizer.dataLinkVisualizer lineContactMode "\"rectangular\""
attr enum circular,rectangular
par MixedWLAN.visualizer.dataLinkVisualizer labelFormat "\"%n\""
par MixedWLAN.visualizer.dataLinkVisualizer labelFont "\"<default>, 8px\""
par MixedWLAN.visualizer.dataLinkVisualizer labelColor "\"darkcyan\""
par MixedWLAN.visualizer.dataLinkVisualizer fadeOutMode "\"realTime\""
attr enum realTime,animationTime,simulationTime
par MixedWLAN.visualizer.dataLinkVisualizer fadeOutTime 1s
attr unit s
par MixedWLAN.visualizer.dataLinkVisualizer fadeOutAnimationSpeed 0
par MixedWLAN.visualizer.dataLinkVisualizer holdAnimationTime 0s
attr unit s
par MixedWLAN.visualizer.dataLinkVisualizer zIndex 2
par MixedWLAN.visualizer.linkBreakVisualizer typename "\"inet.visualizer.canvas.linklayer.LinkBreakCanvasVisualizer\""
par MixedWLAN.visualizer.linkBreakVisualizer visualizationTargetModule "\"^.^\""
par MixedWLAN.visualizer.linkBreakVisualizer visualizationSubjectModule "\"^.^\""
par MixedWLAN.visualizer.linkBreakVisualizer tags "\"\""
par MixedWLAN.visualizer.linkBreakVisualizer displayLinkBreaks false
par MixedWLAN.visualizer.linkBreakVisualizer nodeFilter "\"*\""
attr mutable ""
par MixedWLAN.visualizer.linkBreakVisualizer interfaceFilter "\"*\""
attr mutable ""
par MixedWLAN.visualizer.linkBreakVisualizer packetFilter "(omnetpp::cValueHolder)holder: \"*\""
attr mutable ""
par MixedWLAN.visualizer.linkBreakVisualizer icon "\"status/stop\""
par MixedWLAN.visualizer.linkBreakVisualizer iconTintAmount 0
par MixedWLAN.visualizer.linkBreakVisualizer iconTintColor "\"\""
par MixedWLAN.visualizer.linkBreakVisualizer fadeOutMode "\"realTime\""
attr enum realTime,animationTime,simulationTime
par MixedWLAN.visualizer.linkBreakVisualizer fadeOutTime 1s
attr unit s
par MixedWLAN.visualizer.linkBreakVisualizer fadeOutAnimationSpeed 0
par MixedWLAN.visualizer.linkBreakVisualizer zIndex 2
par MixedWLAN.visualizer.ieee80211Visualizer typename "\"inet.visualizer.canvas.linklayer.Ieee80211CanvasVisualizer\""
par MixedWLAN.visualizer.ieee80211Visualizer visualizationTargetModule "\"^.^\""
par MixedWLAN.visualizer.ieee80211Visualizer visualizationSubjectModule "\"^.^\""
par MixedWLAN.visualizer.ieee80211Visualizer tags "\"\""
par MixedWLAN.visualizer.ieee80211Visualizer networkNodeVisualizerModule "\"^.networkNodeVisualizer\""
par MixedWLAN.visualizer.ieee80211Visualizer displayAssociations false
par MixedWLAN.visualizer.ieee80211Visualizer nodeFilter "\"*\""
attr mutable ""
par MixedWLAN.visualizer.ieee80211Visualizer interfaceFilter "\"*\""
attr mutable ""
par MixedWLAN.visualizer.ieee80211Visualizer minPower -85dBm
attr unit dBm
par MixedWLAN.visualizer.ieee80211Visualizer maxPower -50dBm
attr unit dBm
par MixedWLAN.visualizer.ieee80211Visualizer icons "\"misc/signal_power_0 misc/signal_power_1 misc/signal_power_2 misc/signal_power_3\""
par MixedWLAN.visualizer.ieee80211Visualizer iconColor "\"dark\""
attr enum light,dark
par MixedWLAN.visualizer.ieee80211Visualizer labelFont "\"<default>\""
par MixedWLAN.visualizer.ieee80211Visualizer labelColor "\"black\""
par MixedWLAN.visualizer.ieee80211Visualizer placementHint "\"top\""
par MixedWLAN.visualizer.ieee80211Visualizer placementPriority 0
par MixedWLAN.visualizer.ieee80211Visualizer zIndex 2
par MixedWLAN.visualizer.networkRouteVisualizer typename "\"inet.visualizer.canvas.networklayer.NetworkRouteCanvasVisualizer\""
par MixedWLAN.visualizer.networkRouteVisualizer visualizationTargetModule "\"^.^\""
par MixedWLAN.visualizer.networkRouteVisualizer visualizationSubjectModule "\"^.^\""
par MixedWLAN.visualizer.networkRouteVisualizer tags "\"\""
par MixedWLAN.visualizer.networkRouteVisualizer displayRoutes false
par MixedWLAN.visualizer.networkRouteVisualizer startPathSignal "\"packetReceivedFromUpper\""
par MixedWLAN.visualizer.networkRouteVisualizer extendPathSignal "\"packetReceivedFromLower\""
par MixedWLAN.visualizer.networkRouteVisualizer endPathSignal "\"packetSentToUpper\""
par MixedWLAN.visualizer.networkRouteVisualizer nodeFilter "\"*\""
attr mutable ""
par MixedWLAN.visualizer.networkRouteVisualizer packetFilter "(omnetpp::cValueHolder)holder: \"*\""
attr mutable ""
par MixedWLAN.visualizer.networkRouteVisualizer lineColor "\"dark\""
attr enum light,dark
par MixedWLAN.visualizer.networkRouteVisualizer lineStyle "\"solid\""
par MixedWLAN.visualizer.networkRouteVisualizer lineWidth 3
par MixedWLAN.visualizer.networkRouteVisualizer lineSmooth false
par MixedWLAN.visualizer.networkRouteVisualizer lineShift 16
par MixedWLAN.visualizer.networkRouteVisualizer lineShiftMode "\"normal\""
par MixedWLAN.visualizer.networkRouteVisualizer lineContactSpacing 3
par MixedWLAN.visualizer.networkRouteVisualizer lineContactMode "\"rectangular\""
attr enum circular,rectangular
par MixedWLAN.visualizer.networkRouteVisualizer labelFormat "\"%n\""
par MixedWLAN.visualizer.networkRouteVisualizer labelFont "\"<default>, 8px\""
par MixedWLAN.visualizer.networkRouteVisualizer labelColor "\"\""
par MixedWLAN.visualizer.networkRouteVisualizer fadeOutMode "\"realTime\""
attr enum realTime,animationTime,simulationTime
par MixedWLAN.visualizer.networkRouteVisualizer fadeOutTime 1s
attr unit s
par MixedWLAN.visualizer.networkRouteVisualizer fadeOutAnimationSpeed 0
par MixedWLAN.visualizer.networkRouteVisualizer zIndex 3
par MixedWLAN.visualizer.routingTableVisualizer typename "\"inet.visualizer.canvas.networklayer.RoutingTableCanvasVisualizer\""
par MixedWLAN.visualizer.routingTableVisualizer visualizationTargetModule "\"^.^\""
par MixedWLAN.visualizer.routingTableVisualizer visualizationSubjectModule "\"^.^\""
par MixedWLAN.visualizer.routingTableVisualizer tags "\"\""
par MixedWLAN.visualizer.routingTableVisualizer displayRoutingTables false
par MixedWLAN.visualizer.routingTableVisualizer displayRoutesIndividually true
par MixedWLAN.visualizer.routingTableVisualizer displayLabels true
par MixedWLAN.visualizer.routingTableVisualizer destinationFilter "\"*\""
attr mutable ""
par MixedWLAN.visualizer.routingTableVisualizer nodeFilter "\"*\""
attr mutable ""
par MixedWLAN.visualizer.routingTableVisualizer lineColor "\"black\""
par MixedWLAN.visualizer.routingTableVisualizer lineStyle "\"solid\""
par MixedWLAN.visualizer.routingTableVisualizer lineWidth 2
par MixedWLAN.visualizer.routingTableVisualizer lineShift 16
par MixedWLAN.visualizer.routingTableVisualizer lineShiftMode "\"normal\""
par MixedWLAN.visualizer.routingTableVisualizer lineContactSpacing 3
par MixedWLAN.visualizer.routingTableVisualizer lineContactMode "\"rectangular\""
attr enum circular,rectangular
par MixedWLAN.visualizer.routingTableVisualizer labelFormat "\"%d/%m -> %g (%n)\""
attr mutable ""
par MixedWLAN.visualizer.routingTableVisualizer labelFont "\"<default>, 8px\""
par MixedWLAN.visualizer.routingTableVisualizer labelColor "\"black\""
par MixedWLAN.visualizer.routingTableVisualizer zIndex 0
par MixedWLAN.visualizer.transportRouteVisualizer typename "\"inet.visualizer.canvas.transportlayer.TransportRouteCanvasVisualizer\""
par MixedWLAN.visualizer.transportRouteVisualizer visualizationTargetModule "\"^.^\""
par MixedWLAN.visualizer.transportRouteVisualizer visualizationSubjectModule "\"^.^\""
par MixedWLAN.visualizer.transportRouteVisualizer tags "\"\""
par MixedWLAN.visualizer.transportRouteVisualizer displayRoutes false
par MixedWLAN.visualizer.transportRouteVisualizer startPathSignal "\"packetReceivedFromUpper\""
par MixedWLAN.visualizer.transportRouteVisualizer extendPathSignal "\"packetReceivedFromLower\""
par MixedWLAN.visualizer.transportRouteVisualizer endPathSignal "\"packetSentToUpper\""
par MixedWLAN.visualizer.transportRouteVisualizer nodeFilter "\"*\""
attr mutable ""
par MixedWLAN.visualizer.transportRouteVisualizer packetFilter "(omnetpp::cValueHolder)holder: \"*\""
attr mutable ""
par MixedWLAN.visualizer.transportRouteVisualizer lineColor "\"dark\""
attr enum light,dark
par MixedWLAN.visualizer.transportRouteVisualizer lineStyle "\"solid\""
par MixedWLAN.visualizer.transportRouteVisualizer lineWidth 3
par MixedWLAN.visualizer.transportRouteVisualizer lineSmooth false
par MixedWLAN.visualizer.transportRouteVisualizer lineShift 16
par MixedWLAN.visualizer.transportRouteVisualizer lineShiftMode "\"normal\""
par MixedWLAN.visualizer.transportRouteVisualizer lineContactSpacing 3
par MixedWLAN.visualizer.transportRouteVisualizer lineContactMode "\"rectangular\""
attr enum circular,rectangular
par MixedWLAN.visualizer.transportRouteVisualizer labelFormat "\"%n\""
par MixedWLAN.visualizer.transportRouteVisualizer labelFont "\"<default>, 8px\""
par MixedWLAN.visualizer.transportRouteVisualizer labelColor "\"\""
par MixedWLAN.visualizer.transportRouteVisualizer fadeOutMode "\"realTime\""
attr enum realTime,animationTime,simulationTime
par MixedWLAN.visualizer.transportRouteVisualizer fadeOutTime 1s
attr unit s
par MixedWLAN.visualizer.transportRouteVisualizer fadeOutAnimationSpeed 0
par MixedWLAN.visualizer.transportRouteVisualizer zIndex 4
par MixedWLAN.visualizer.transportConnectionVisualizer typename "\"inet.visualizer.canvas.transportlayer.TransportConnectionCanvasVisualizer\""
par MixedWLAN.visualizer.transportConnectionVisualizer visualizationTargetModule "\"^.^\""
par MixedWLAN.visualizer.transportConnectionVisualizer visualizationSubjectModule "\"^.^\""
par MixedWLAN.visualizer.transportConnectionVisualizer tags "\"\""
par MixedWLAN.visualizer.transportConnectionVisualizer networkNodeVisualizerModule "\"^.networkNodeVisualizer\""
par MixedWLAN.visualizer.transportConnectionVisualizer displayTransportConnections false
par MixedWLAN.visualizer.transportConnectionVisualizer sourceNodeFilter "\"*\""
attr mutable ""
par MixedWLAN.visualizer.transportConnectionVisualizer sourcePortFilter "\"*\""
attr mutable ""
par MixedWLAN.visualizer.transportConnectionVisualizer destinationNodeFilter "\"*\""
attr mutable ""
par MixedWLAN.visualizer.transportConnectionVisualizer destinationPortFilter "\"*\""
attr mutable ""
par MixedWLAN.visualizer.transportConnectionVisualizer icon "\"misc/marker_s\""
par MixedWLAN.visualizer.transportConnectionVisualizer iconColor "\"dark\""
attr enum light,dark
par MixedWLAN.visualizer.transportConnectionVisualizer labelFont "\"<default>\""
par MixedWLAN.visualizer.transportConnectionVisualizer labelColor "\"black\""
par MixedWLAN.visualizer.transportConnectionVisualizer placementHint "\"top\""
par MixedWLAN.visualizer.transportConnectionVisualizer placementPriority 0
par MixedWLAN.visualizer.transportConnectionVisualizer zIndex 4
par MixedWLAN.visualizer.failureProtectionConfigurationVisualizer typename "\"inet.visualizer.canvas.configurator.FailureProtectionConfigurationCanvasVisualizer\""
par MixedWLAN.visualizer.failureProtectionConfigurationVisualizer visualizationTargetModule "\"^.^\""
par MixedWLAN.visualizer.failureProtectionConfigurationVisualizer visualizationSubjectModule "\"^.^\""
par MixedWLAN.visualizer.failureProtectionConfigurationVisualizer tags "\"\""
par MixedWLAN.visualizer.failureProtectionConfigurationVisualizer displayTrees false
par MixedWLAN.visualizer.failureProtectionConfigurationVisualizer lineColor "\"dark\""
attr enum light,dark
par MixedWLAN.visualizer.failureProtectionConfigurationVisualizer lineStyle "\"solid\""
par MixedWLAN.visualizer.failureProtectionConfigurationVisualizer lineWidth 3
par MixedWLAN.visualizer.failureProtectionConfigurationVisualizer lineSmooth false
par MixedWLAN.visualizer.failureProtectionConfigurationVisualizer lineShift 16
par MixedWLAN.visualizer.failureProtectionConfigurationVisualizer lineShiftMode "\"normal\""
par MixedWLAN.visualizer.failureProtectionConfigurationVisualizer lineContactSpacing 3
par MixedWLAN.visualizer.failureProtectionConfigurationVisualizer lineContactMode "\"rectangular\""
attr enum circular,rectangular
par MixedWLAN.visualizer.failureProtectionConfigurationVisualizer failureProtectionConfiguratorModule "\"failureProtectionConfigurator\""
par MixedWLAN.visualizer.failureProtectionConfigurationVisualizer streamFilter "\"*\""
par MixedWLAN.visualizer.failureProtectionConfigurationVisualizer zIndex 3
par MixedWLAN.visualizer.streamRedundancyConfigurationVisualizer typename "\"inet.visualizer.canvas.configurator.StreamRedundancyConfigurationCanvasVisualizer\""
par MixedWLAN.visualizer.streamRedundancyConfigurationVisualizer visualizationTargetModule "\"^.^\""
par MixedWLAN.visualizer.streamRedundancyConfigurationVisualizer visualizationSubjectModule "\"^.^\""
par MixedWLAN.visualizer.streamRedundancyConfigurationVisualizer tags "\"\""
par MixedWLAN.visualizer.streamRedundancyConfigurationVisualizer displayTrees false
par MixedWLAN.visualizer.streamRedundancyConfigurationVisualizer lineColor "\"dark\""
attr enum light,dark
par MixedWLAN.visualizer.streamRedundancyConfigurationVisualizer lineStyle "\"solid\""
par MixedWLAN.visualizer.streamRedundancyConfigurationVisualizer lineWidth 3
par MixedWLAN.visualizer.streamRedundancyConfigurationVisualizer lineSmooth false
par MixedWLAN.visualizer.streamRedundancyConfigurationVisualizer lineShift 16
par MixedWLAN.visualizer.streamRedundancyConfigurationVisualizer lineShiftMode "\"normal\""
par MixedWLAN.visualizer.streamRedundancyConfigurationVisualizer lineContactSpacing 3
par MixedWLAN.visualizer.streamRedundancyConfigurationVisualizer lineContactMode "\"rectangular\""
attr enum circular,rectangular
par MixedWLAN.visualizer.streamRedundancyConfigurationVisualizer streamRedundancyConfiguratorModule "\"streamRedundancyConfigurator\""
par MixedWLAN.visualizer.streamRedundancyConfigurationVisualizer streamFilter "\"*\""
par MixedWLAN.visualizer.streamRedundancyConfigurationVisualizer zIndex 3
par MixedWLAN.visualizer typename "\"inet.visualizer.canvas.integrated.IntegratedCanvasVisualizer\""
par MixedWLAN.configurator typename "\"inet.networklayer.configurator.ipv4.Ipv4NetworkConfigurator\""
par MixedWLAN.configurator minLinkWeight 0.001
par MixedWLAN.configurator configureIsolatedNetworksSeparatly false
par MixedWLAN.configurator config "<config>...</config> at content:1"
par MixedWLAN.configurator assignAddresses true
par MixedWLAN.configurator assignUniqueAddresses true
par MixedWLAN.configurator assignDisjunctSubnetAddresses true
par MixedWLAN.configurator addStaticRoutes true
par MixedWLAN.configurator addDefaultRoutes true
par MixedWLAN.configurator addSubnetRoutes true
par MixedWLAN.configurator addDirectRoutes true
par MixedWLAN.configurator optimizeRoutes true
par MixedWLAN.configurator dumpTopology false
par MixedWLAN.configurator dumpLinks false
par MixedWLAN.configurator dumpAddresses false
par MixedWLAN.configurator dumpRoutes false
par MixedWLAN.configurator dumpConfig "\"\""
par MixedWLAN.radioMedium.propagation typename "\"inet.physicallayer.wireless.common.propagation.ConstantSpeedPropagation\""
par MixedWLAN.radioMedium.propagation propagationSpeed 2.99792e+08mps
attr unit mps
par MixedWLAN.radioMedium.propagation ignoreMovementDuringTransmission true
par MixedWLAN.radioMedium.propagation ignoreMovementDuringPropagation true
par MixedWLAN.radioMedium.propagation ignoreMovementDuringReception true
scalar MixedWLAN.radioMedium.propagation "Arrival computation count" 441518
par MixedWLAN.radioMedium.analogModel typename "\"inet.physicallayer.wireless.common.analogmodel.packetlevel.ScalarAnalogModel\""
par MixedWLAN.radioMedium.analogModel ignorePartialInterference false
par MixedWLAN.radioMedium.backgroundNoise typename "\"inet.physicallayer.wireless.common.backgroundnoise.IsotropicScalarBackgroundNoise\""
par MixedWLAN.radioMedium.backgroundNoise power -110dBm
attr unit dBm
par MixedWLAN.radioMedium.backgroundNoise bandwidth "nan Hz"
attr unit Hz
par MixedWLAN.radioMedium.pathLoss typename "\"inet.physicallayer.wireless.common.pathloss.FreeSpacePathLoss\""
par MixedWLAN.radioMedium.pathLoss alpha 2
par MixedWLAN.radioMedium.pathLoss systemLoss 0dB
attr unit dB
par MixedWLAN.radioMedium.mediumLimitCache typename "\"inet.physicallayer.wireless.common.medium.MediumLimitCache\""
par MixedWLAN.radioMedium.mediumLimitCache centerFrequency 2.4e+09Hz
attr unit Hz
par MixedWLAN.radioMedium.mediumLimitCache maxSpeed "nan mps"
attr unit mps
par MixedWLAN.radioMedium.mediumLimitCache maxTransmissionPower "nan W"
attr unit W
par MixedWLAN.radioMedium.mediumLimitCache minInterferencePower -110dBm
attr unit dBm
par MixedWLAN.radioMedium.mediumLimitCache minReceptionPower -85dBm
attr unit dBm
par MixedWLAN.radioMedium.mediumLimitCache maxAntennaGain 0dB
attr unit dB
par MixedWLAN.radioMedium.mediumLimitCache minInterferenceTime 1e-12s
attr unit s
par MixedWLAN.radioMedium.mediumLimitCache maxTransmissionDuration 0.01s
attr unit s
par MixedWLAN.radioMedium.mediumLimitCache maxCommunicationRange "nan m"
attr unit m
par MixedWLAN.radioMedium.mediumLimitCache maxInterferenceRange "nan m"
attr unit m
par MixedWLAN.radioMedium.communicationCache typename "\"inet.physicallayer.wireless.common.communicationcache.VectorCommunicationCache\""
par MixedWLAN.radioMedium typename "\"inet.physicallayer.wireless.ieee80211.packetlevel.Ieee80211ScalarRadioMedium\""
par MixedWLAN.radioMedium physicalEnvironmentModule "\"physicalEnvironment\""
par MixedWLAN.radioMedium signalAnalogRepresentation "\"scalar\""
attr enum unitDisk,scalar,dimensional
par MixedWLAN.radioMedium rangeFilter "\"\""
par MixedWLAN.radioMedium radioModeFilter false
par MixedWLAN.radioMedium listeningFilter false
par MixedWLAN.radioMedium macAddressFilter false
par MixedWLAN.radioMedium recordTransmissionLog false
par MixedWLAN.radioMedium recordReceptionLog false
scalar MixedWLAN.radioMedium "transmission count" 40138
scalar MixedWLAN.radioMedium "signal send count" 441518
scalar MixedWLAN.radioMedium "reception computation count" 441518
scalar MixedWLAN.radioMedium "interference computation count" 1364576
scalar MixedWLAN.radioMedium "reception decision computation count" 441398
scalar MixedWLAN.radioMedium "listening decision computation count" 481680
scalar MixedWLAN.radioMedium "reception cache hit" 85.713763378442
attr unit %
scalar MixedWLAN.radioMedium "interference cache hit" 66.666666666667
attr unit %
scalar MixedWLAN.radioMedium "noise cache hit" 0
attr unit %
scalar MixedWLAN.radioMedium "snir cache hit" 50
attr unit %
scalar MixedWLAN.radioMedium "reception decision cache hit" 50
attr unit %
scalar MixedWLAN.radioMedium "reception result cache hit" 0
attr unit %
par MixedWLAN.udphost[0].radioIn[0].channel typename "\"ned.IdealChannel\""
par MixedWLAN.udphost[0].mobility typename "\"inet.mobility.static.StationaryMobility\""
par MixedWLAN.udphost[0].mobility subjectModule "\"^\""
par MixedWLAN.udphost[0].mobility coordinateSystemModule "\"\""
par MixedWLAN.udphost[0].mobility displayStringTextFormat "\"p: %p\\nv: %v\""
attr mutable ""
par MixedWLAN.udphost[0].mobility updateDisplayString true
par MixedWLAN.udphost[0].mobility constraintAreaMinX 0m
attr unit m
par MixedWLAN.udphost[0].mobility constraintAreaMinY 0m
attr unit m
par MixedWLAN.udphost[0].mobility constraintAreaMinZ 0m
attr unit m
par MixedWLAN.udphost[0].mobility constraintAreaMaxX 50m
attr unit m
par MixedWLAN.udphost[0].mobility constraintAreaMaxY 50m
attr unit m
par MixedWLAN.udphost[0].mobility constraintAreaMaxZ 0m
attr unit m
par MixedWLAN.udphost[0].mobility initialX 27.4407m
attr unit m
par MixedWLAN.udphost[0].mobility initialY 29.6422m
attr unit m
par MixedWLAN.udphost[0].mobility initialZ 0m
attr unit m
par MixedWLAN.udphost[0].mobility initialLatitude "nan deg"
attr unit deg
par MixedWLAN.udphost[0].mobility initialLongitude "nan deg"
attr unit deg
par MixedWLAN.udphost[0].mobility initialAltitude 0m
attr unit m
par MixedWLAN.udphost[0].mobility initialHeading 0deg
attr unit deg
par MixedWLAN.udphost[0].mobility initialElevation 0deg
attr unit deg
par MixedWLAN.udphost[0].mobility initialBank 0deg
attr unit deg
par MixedWLAN.udphost[0].mobility initFromDisplayString true
par MixedWLAN.udphost[0].mobility updateFromDisplayString true
par MixedWLAN.udphost[0].interfaceTable typename "\"inet.networklayer.common.InterfaceTable\""
par MixedWLAN.udphost[0].interfaceTable displayAddresses false
par MixedWLAN.udphost[0].cb typename "\"inet.common.MessageDispatcher\""
par MixedWLAN.udphost[0].cb displayStringTextFormat "\"processed %p pk (%l)\""
par MixedWLAN.udphost[0].cb forwardServiceRegistration true
par MixedWLAN.udphost[0].cb forwardProtocolRegistration true
par MixedWLAN.udphost[0].bl typename "\"inet.common.MessageDispatcher\""
par MixedWLAN.udphost[0].bl displayStringTextFormat "\"processed %p pk (%l)\""
par MixedWLAN.udphost[0].bl forwardServiceRegistration true
par MixedWLAN.udphost[0].bl forwardProtocolRegistration true
par MixedWLAN.udphost[0].li typename "\"inet.common.MessageDispatcher\""
par MixedWLAN.udphost[0].li displayStringTextFormat "\"processed %p pk (%l)\""
par MixedWLAN.udphost[0].li forwardServiceRegistration true
par MixedWLAN.udphost[0].li forwardProtocolRegistration true
par MixedWLAN.udphost[0].lo[0].upperLayerIn.channel typename "\"ned.IdealChannel\""
par MixedWLAN.udphost[0].lo[0].lo.upperLayerOut.channel typename "\"ned.IdealChannel\""
par MixedWLAN.udphost[0].lo[0].lo typename "\"inet.linklayer.loopback.Loopback\""
par MixedWLAN.udphost[0].lo[0].lo interfaceTableModule "\"MixedWLAN.udphost[0].interfaceTable\""
par MixedWLAN.udphost[0].lo[0].lo mtu 4470B
attr unit B
scalar MixedWLAN.udphost[0].lo[0].lo rcvdPkFromHl:count 0
attr interpolationmode none
attr recordingmode count
attr source packetReceivedFromUpper
attr title "packets received from higher layer, count"
scalar MixedWLAN.udphost[0].lo[0].lo rcvdPkFromHl:sum(packetBytes) 0
attr interpolationmode none
attr recordingmode sum(packetBytes)
attr source packetReceivedFromUpper
attr title "packets received from higher layer, sum(packetBytes)"
scalar MixedWLAN.udphost[0].lo[0].lo passedUpPk:count 0
attr interpolationmode none
attr recordingmode count
attr source packetSentToUpper
attr title "packets passed to higher layer, count"
scalar MixedWLAN.udphost[0].lo[0].lo passedUpPk:sum(packetBytes) 0
attr interpolationmode none
attr recordingmode sum(packetBytes)
attr source packetSentToUpper
attr title "packets passed to higher layer, sum(packetBytes)"
par MixedWLAN.udphost[0].lo[0] typename "\"inet.linklayer.loopback.LoopbackInterface\""
par MixedWLAN.udphost[0].lo[0] displayStringTextFormat "\"%a (%i)\\n%m\""
par MixedWLAN.udphost[0].lo[0] recordPcap false
par MixedWLAN.udphost[0].lo[0] numPcapRecorders 0
par MixedWLAN.udphost[0].lo[0] interfaceTableModule "\"MixedWLAN.udphost[0].interfaceTable\""
scalar MixedWLAN.udphost[0].lo[0] packetDropInterfaceDown:count 0
attr interpolationmode none
attr recordingmode count
attr source packetDropReasonIsInterfaceDown(packetDropped)
attr title "packet drops: interface down, count"
scalar MixedWLAN.udphost[0].lo[0] packetDropInterfaceDown:sum(packetBytes) 0
attr interpolationmode none
attr recordingmode sum(packetBytes)
attr source packetDropReasonIsInterfaceDown(packetDropped)
attr title "packet drops: interface down, sum(packetBytes)"
scalar MixedWLAN.udphost[0].lo[0] packetDropNoCarrier:count 0
attr interpolationmode none
attr recordingmode count
attr source packetDropReasonIsNoCarrier(packetDropped)
attr title "packet drops: no carrier, count"
scalar MixedWLAN.udphost[0].lo[0] packetDropNoCarrier:sum(packetBytes) 0
attr interpolationmode none
attr recordingmode sum(packetBytes)
attr source packetDropReasonIsNoCarrier(packetDropped)
attr title "packet drops: no carrier, sum(packetBytes)"
par MixedWLAN.udphost[0].wlan[0].radioIn.channel typename "\"ned.IdealChannel\""
par MixedWLAN.udphost[0].wlan[0].llc.upperLayerOut.channel typename "\"ned.IdealChannel\""
par MixedWLAN.udphost[0].wlan[0].upperLayerIn.channel typename "\"ned.IdealChannel\""
par MixedWLAN.udphost[0].wlan[0].mib typename "\"inet.linklayer.ieee80211.mib.Ieee80211Mib\""
par MixedWLAN.udphost[0].wlan[0].llc typename "\"inet.linklayer.ieee80211.llc.Ieee80211LlcLpd\""
par MixedWLAN.udphost[0].wlan[0].llc registerProtocol false
par MixedWLAN.udphost[0].wlan[0].mgmt typename "\"inet.linklayer.ieee80211.mgmt.Ieee80211MgmtStaSimplified\""
par MixedWLAN.udphost[0].wlan[0].mgmt accessPointAddress "\"10:00:00:00:00:00\""
par MixedWLAN.udphost[0].wlan[0].mgmt interfaceTableModule "\"MixedWLAN.udphost[0].interfaceTable\""
par MixedWLAN.udphost[0].wlan[0].mgmt mibModule "\"MixedWLAN.udphost[0].wlan[0].mib\""
par MixedWLAN.udphost[0].wlan[0].mgmt macModule "\"MixedWLAN.udphost[0].wlan[0].mac\""
par MixedWLAN.udphost[0].wlan[0].mac.dcf.channelAccess.pendingQueue typename "\"inet.linklayer.ieee80211.mac.queue.PendingQueue\""
par MixedWLAN.udphost[0].wlan[0].mac.dcf.channelAccess.pendingQueue displayStringTextFormat "\"contains %p pk (%l) pushed %u\\npulled %o removed %r dropped %d\""
par MixedWLAN.udphost[0].wlan[0].mac.dcf.channelAccess.pendingQueue packetCapacity 40
par MixedWLAN.udphost[0].wlan[0].mac.dcf.channelAccess.pendingQueue dataCapacity -1b
attr unit b
par MixedWLAN.udphost[0].wlan[0].mac.dcf.channelAccess.pendingQueue dropperClass "\"inet::queueing::PacketAtCollectionEndDropper\""
par MixedWLAN.udphost[0].wlan[0].mac.dcf.channelAccess.pendingQueue comparatorClass "\"inet::ieee80211::MgmtOverDataComparator\""
par MixedWLAN.udphost[0].wlan[0].mac.dcf.channelAccess.pendingQueue bufferModule "\"\""
scalar MixedWLAN.udphost[0].wlan[0].mac.dcf.channelAccess.pendingQueue queueLength:last 0
attr autoWarmupFilter false
attr interpolationmode sample-hold
attr recordingmode last
attr source "warmup(atomic(constant0(packetPushEnded) + count(packetPushStarted) - count(packetPulled) - count(packetRemoved) - count(packetDropped)))"
attr title "queue length, last"
attr unit pk
scalar MixedWLAN.udphost[0].wlan[0].mac.dcf.channelAccess.pendingQueue queueLength:max 4
attr autoWarmupFilter false
attr interpolationmode sample-hold
attr recordingmode max
attr source "warmup(atomic(constant0(packetPushEnded) + count(packetPushStarted) - count(packetPulled) - count(packetRemoved) - count(packetDropped)))"
attr title "queue length, max"
attr unit pk
scalar MixedWLAN.udphost[0].wlan[0].mac.dcf.channelAccess.pendingQueue queueLength:timeavg 0.075662133381801
attr autoWarmupFilter false
attr interpolationmode sample-hold
attr recordingmode timeavg
attr source "warmup(atomic(constant0(packetPushEnded) + count(packetPushStarted) - count(packetPulled) - count(packetRemoved) - count(packetDropped)))"
attr title "queue length, timeavg"
attr unit pk
scalar MixedWLAN.udphost[0].wlan[0].mac.dcf.channelAccess.pendingQueue queueBitLength:last 0
attr autoWarmupFilter false
attr interpolationmode sample-hold
attr recordingmode last
attr source "warmup(atomic(constant0(packetPushEnded) + sum(packetLength(packetPushStarted)) - sum(packetLength(packetPulled)) - sum(packetLength(packetRemoved)) - sum(packetLength(packetDropped))))"
attr title "queue bit length, last"
attr unit b
scalar MixedWLAN.udphost[0].wlan[0].mac.dcf.channelAccess.pendingQueue queueBitLength:max 50048
attr autoWarmupFilter false
attr interpolationmode sample-hold
attr recordingmode max
attr source "warmup(atomic(constant0(packetPushEnded) + sum(packetLength(packetPushStarted)) - sum(packetLength(packetPulled)) - sum(packetLength(packetRemoved)) - sum(packetLength(packetDropped))))"
attr title "queue bit length, max"
attr unit b
scalar MixedWLAN.udphost[0].wlan[0].mac.dcf.channelAccess.pendingQueue queueBitLength:timeavg 942.95005644589
attr autoWarmupFilter false
attr interpolationmode sample-hold
attr recordingmode timeavg
attr source "warmup(atomic(constant0(packetPushEnded) + sum(packetLength(packetPushStarted)) - sum(packetLength(packetPulled)) - sum(packetLength(packetRemoved)) - sum(packetLength(packetDropped))))"
attr title "queue bit length, timeavg"
attr unit b
statistic MixedWLAN.udphost[0].wlan[0].mac.dcf.channelAccess.pendingQueue queueingTime:histogram
field count 2513
field mean 0.00030108290243454
field stddev 0.00024097651556169
field min 4.3e-05
field max 0.002189408483
field sum 0.756621333818
field sqrsum 0.00037367678603308
attr interpolationmode none
attr recordingmode histogram
attr source queueingTime(packetPulled)
attr title "queueing times"
attr unit s
scalar MixedWLAN.udphost[0].wlan[0].mac.dcf.channelAccess.pendingQueue outgoingPackets:count 2513
attr recordingmode count
attr source packetPulled
attr title "outgoing packets, count"
attr unit pk
scalar MixedWLAN.udphost[0].wlan[0].mac.dcf.channelAccess.pendingQueue outgoingPacketLengths:sum 31322656
attr interpolationmode none
attr recordingmode sum
attr source packetLength(packetPulled)
attr title "outgoing packet lengths, sum"
attr unit b
statistic MixedWLAN.udphost[0].wlan[0].mac.dcf.channelAccess.pendingQueue outgoingPacketLengths:histogram
field count 2513
field mean 12464.248308794
field stddev 755.62376610176
field min 512
field max 12512
field sum 31322656
field sqrsum 391847631872
attr interpolationmode none
attr recordingmode histogram
attr source packetLength(packetPulled)
attr title "outgoing packet lengths"
attr unit b
statistic MixedWLAN.udphost[0].wlan[0].mac.dcf.channelAccess.pendingQueue flowQueueingTime:histogram
field count 0
field mean nan
field stddev nan
field min nan
field max nan
field sum 0
field sqrsum 0
attr interpolationmode none
attr recordingmode histogram
attr source queueingTime(demuxFlow(packetPulled))
attr title "flow queueing times"
attr unit s
scalar MixedWLAN.udphost[0].wlan[0].mac.dcf.channelAccess.pendingQueue incomingPackets:count 2513
attr recordingmode count
attr source packetPushStarted
attr title "incoming packets, count"
attr unit pk
scalar MixedWLAN.udphost[0].wlan[0].mac.dcf.channelAccess.pendingQueue incomingPacketLengths:sum 31322656
attr interpolationmode none
attr recordingmode sum
attr source packetLength(packetPushStarted)
attr title "incoming packet lengths, sum"
attr unit b
statistic MixedWLAN.udphost[0].wlan[0].mac.dcf.channelAccess.pendingQueue incomingPacketLengths:histogram
field count 2513
field mean 12464.248308794
field stddev 755.62376610176
field min 512
field max 12512
field sum 31322656
field sqrsum 391847631872
attr interpolationmode none
attr recordingmode histogram
attr source packetLength(packetPushStarted)
attr title "incoming packet lengths"
attr unit b
scalar MixedWLAN.udphost[0].wlan[0].mac.dcf.channelAccess.pendingQueue droppedPacketsQueueOverflow:count 0
attr interpolationmode none
attr recordingmode count
attr source packetDropReasonIsQueueOverflow(packetDropped)
attr title "dropped packets: queue overflow, count"
attr unit pk
scalar MixedWLAN.udphost[0].wlan[0].mac.dcf.channelAccess.pendingQueue droppedPacketLengthsQueueOverflow:sum 0
attr interpolationmode none
attr recordingmode sum
attr source packetLength(packetDropReasonIsQueueOverflow(packetDropped))
attr title "dropped packet lengths: queue overflow, sum"
attr unit b
par MixedWLAN.udphost[0].wlan[0].mac.dcf.channelAccess.inProgressFrames typename "\"inet.linklayer.ieee80211.mac.queue.InProgressFrames\""
par MixedWLAN.udphost[0].wlan[0].mac.dcf.channelAccess.inProgressFrames pendingQueueModule "\"^.pendingQueue\""
par MixedWLAN.udphost[0].wlan[0].mac.dcf.channelAccess.inProgressFrames originatorMacDataServiceModule "\"^.^.originatorMacDataService\""
par MixedWLAN.udphost[0].wlan[0].mac.dcf.channelAccess.inProgressFrames ackHandlerModule "\"^.^.ackHandler\""
statistic MixedWLAN.udphost[0].wlan[0].mac.dcf.channelAccess.inProgressFrames queueingTime:histogram
field count 5016
field mean 0.00026394423354325
field stddev 0.000195995198343
field min 0.00012015166
field max 0.002284961584
field sum 1.3239442754529
field sqrsum 0.00054209425767255
attr interpolationmode none
attr recordingmode histogram
attr source queueingTime(packetDequeued)
attr title "queueing times"
scalar MixedWLAN.udphost[0].wlan[0].mac.dcf.channelAccess.inProgressFrames queueLength:max 3
attr autoWarmupFilter false
attr interpolationmode sample-hold
attr recordingmode max
attr source "warmup(count(packetEnqueued) - count(packetDequeued))"
attr title "queue length, max"
scalar MixedWLAN.udphost[0].wlan[0].mac.dcf.channelAccess.inProgressFrames queueLength:timeavg 0.13239442754531
attr autoWarmupFilter false
attr interpolationmode sample-hold
attr recordingmode timeavg
attr source "warmup(count(packetEnqueued) - count(packetDequeued))"
attr title "queue length, timeavg"
par MixedWLAN.udphost[0].wlan[0].mac.dcf.channelAccess.contention typename "\"inet.linklayer.ieee80211.mac.contention.Contention\""
par MixedWLAN.udphost[0].wlan[0].mac.dcf.channelAccess.contention initialChannelBusy true
par MixedWLAN.udphost[0].wlan[0].mac.dcf.channelAccess.contention backoffOptimization true
scalar MixedWLAN.udphost[0].wlan[0].mac.dcf.channelAccess.contention stateChanged:count 80438
attr enum IDLE,DEFER,IFS_AND_BACKOFF
attr interpolationmode none
attr recordingmode count
attr title "contention state changed, count"
attr type enum
scalar MixedWLAN.udphost[0].wlan[0].mac.dcf.channelAccess.contention channelAccessGranted:count 2515
attr recordingmode count
attr title "channel access granted, count"
par MixedWLAN.udphost[0].wlan[0].mac.dcf.channelAccess typename "\"inet.linklayer.ieee80211.mac.channelaccess.Dcaf\""
par MixedWLAN.udphost[0].wlan[0].mac.dcf.channelAccess difsn -1
par MixedWLAN.udphost[0].wlan[0].mac.dcf.channelAccess cwMin 20
par MixedWLAN.udphost[0].wlan[0].mac.dcf.channelAccess cwMax -1
par MixedWLAN.udphost[0].wlan[0].mac.dcf.channelAccess rxModule "\"^.^.rx\""
scalar MixedWLAN.udphost[0].wlan[0].mac.dcf.channelAccess channelOwnershipChanged:count 5030
attr interpolationmode sample-hold
attr recordingmode count
attr title "channel ownership, count"
par MixedWLAN.udphost[0].wlan[0].mac.dcf.originatorMacDataService.fragmentationPolicy typename "\"inet.linklayer.ieee80211.mac.fragmentation.BasicFragmentationPolicy\""
par MixedWLAN.udphost[0].wlan[0].mac.dcf.originatorMacDataService.fragmentationPolicy fragmentationThreshold 1500B
attr unit B
par MixedWLAN.udphost[0].wlan[0].mac.dcf.originatorMacDataService typename "\"inet.linklayer.ieee80211.mac.originator.OriginatorMacDataService\""
scalar MixedWLAN.udphost[0].wlan[0].mac.dcf.originatorMacDataService packetAggregated:count 0
attr recordingmode count
attr title "packets aggregated, count"
scalar MixedWLAN.udphost[0].wlan[0].mac.dcf.originatorMacDataService packetFragmented:count 2503
attr recordingmode count
attr title "packets fragmented, count"
par MixedWLAN.udphost[0].wlan[0].mac.dcf.recipientMacDataService typename "\"inet.linklayer.ieee80211.mac.recipient.RecipientMacDataService\""
scalar MixedWLAN.udphost[0].wlan[0].mac.dcf.recipientMacDataService packetDropDuplicateDetected:count 0
attr interpolationmode none
attr recordingmode count
attr source packetDropReasonIsDuplicateDetected(packetDropped)
attr title "packet drops: duplicate detected, count"
scalar MixedWLAN.udphost[0].wlan[0].mac.dcf.recipientMacDataService packetDropDuplicateDetected:sum(packetBytes) 0
attr interpolationmode none
attr recordingmode sum(packetBytes)
attr source packetDropReasonIsDuplicateDetected(packetDropped)
attr title "packet drops: duplicate detected, sum(packetBytes)"
scalar MixedWLAN.udphost[0].wlan[0].mac.dcf.recipientMacDataService packetDeaggregated:count 0
attr recordingmode count
attr title "packets deaggregated, count"
scalar MixedWLAN.udphost[0].wlan[0].mac.dcf.recipientMacDataService packetDefragmented:count 2513
attr recordingmode count
attr title "packets defragmented, count"
par MixedWLAN.udphost[0].wlan[0].mac.dcf.rateSelection typename "\"inet.linklayer.ieee80211.mac.rateselection.RateSelection\""
par MixedWLAN.udphost[0].wlan[0].mac.dcf.rateSelection rateControlModule "\"^.rateControl\""
par MixedWLAN.udphost[0].wlan[0].mac.dcf.rateSelection multicastFrameBitrate -1bps
attr unit bps
par MixedWLAN.udphost[0].wlan[0].mac.dcf.rateSelection responseAckFrameBitrate -1bps
attr unit bps
par MixedWLAN.udphost[0].wlan[0].mac.dcf.rateSelection responseCtsFrameBitrate -1bps
attr unit bps
par MixedWLAN.udphost[0].wlan[0].mac.dcf.rateSelection dataFrameBitrate 4.333e+08bps
attr unit bps
par MixedWLAN.udphost[0].wlan[0].mac.dcf.rateSelection dataFrameBandwidth "nan Hz"
attr unit Hz
par MixedWLAN.udphost[0].wlan[0].mac.dcf.rateSelection dataFrameNumSpatialStreams -1
par MixedWLAN.udphost[0].wlan[0].mac.dcf.rateSelection mgmtFrameBitrate -1bps
attr unit bps
par MixedWLAN.udphost[0].wlan[0].mac.dcf.rateSelection controlFrameBitrate -1bps
attr unit bps
par MixedWLAN.udphost[0].wlan[0].mac.dcf.recoveryProcedure typename "\"inet.linklayer.ieee80211.mac.originator.NonQosRecoveryProcedure\""
par MixedWLAN.udphost[0].wlan[0].mac.dcf.recoveryProcedure cwCalculatorModule "\"^.channelAccess\""
par MixedWLAN.udphost[0].wlan[0].mac.dcf.recoveryProcedure rtsPolicyModule "\"^.rtsPolicy\""
par MixedWLAN.udphost[0].wlan[0].mac.dcf.recoveryProcedure shortRetryLimit 7
par MixedWLAN.udphost[0].wlan[0].mac.dcf.recoveryProcedure longRetryLimit 4
scalar MixedWLAN.udphost[0].wlan[0].mac.dcf.recoveryProcedure retryLimitReached:count 0
attr recordingmode count
attr title "retry limit reached, count"
par MixedWLAN.udphost[0].wlan[0].mac.dcf.originatorProtectionMechanism typename "\"inet.linklayer.ieee80211.mac.protectionmechanism.OriginatorProtectionMechanism\""
par MixedWLAN.udphost[0].wlan[0].mac.dcf.originatorProtectionMechanism rateSelectionModule "\"^.rateSelection\""
par MixedWLAN.udphost[0].wlan[0].mac.dcf.ackHandler typename "\"inet.linklayer.ieee80211.mac.originator.AckHandler\""
par MixedWLAN.udphost[0].wlan[0].mac.dcf.originatorAckPolicy typename "\"inet.linklayer.ieee80211.mac.originator.OriginatorAckPolicy\""
par MixedWLAN.udphost[0].wlan[0].mac.dcf.originatorAckPolicy rateSelectionModule "\"^.rateSelection\""
par MixedWLAN.udphost[0].wlan[0].mac.dcf.originatorAckPolicy ackTimeout -1s
attr unit s
par MixedWLAN.udphost[0].wlan[0].mac.dcf.recipientAckPolicy typename "\"inet.linklayer.ieee80211.mac.recipient.RecipientAckPolicy\""
par MixedWLAN.udphost[0].wlan[0].mac.dcf.recipientAckPolicy rateSelectionModule "\"^.rateSelection\""
par MixedWLAN.udphost[0].wlan[0].mac.dcf.rtsPolicy typename "\"inet.linklayer.ieee80211.mac.originator.RtsPolicy\""
par MixedWLAN.udphost[0].wlan[0].mac.dcf.rtsPolicy rateSelectionModule "\"^.rateSelection\""
par MixedWLAN.udphost[0].wlan[0].mac.dcf.rtsPolicy ctsTimeout -1s
attr unit s
par MixedWLAN.udphost[0].wlan[0].mac.dcf.rtsPolicy rtsThreshold 2346B
attr unit B
par MixedWLAN.udphost[0].wlan[0].mac.dcf.ctsPolicy typename "\"inet.linklayer.ieee80211.mac.recipient.CtsPolicy\""
par MixedWLAN.udphost[0].wlan[0].mac.dcf.ctsPolicy rxModule "\"^.^.rx\""
par MixedWLAN.udphost[0].wlan[0].mac.dcf.ctsPolicy rateSelectionModule "\"^.rateSelection\""
par MixedWLAN.udphost[0].wlan[0].mac.dcf typename "\"inet.linklayer.ieee80211.mac.coordinationfunction.Dcf\""
par MixedWLAN.udphost[0].wlan[0].mac.dcf rxModule "\"^.rx\""
par MixedWLAN.udphost[0].wlan[0].mac.dcf txModule "\"^.tx\""
scalar MixedWLAN.udphost[0].wlan[0].mac.dcf packetReceivedFromPeer:count 10032
attr interpolationmode none
attr recordingmode count
attr title "packets received, count"
scalar MixedWLAN.udphost[0].wlan[0].mac.dcf packetReceivedFromPeer:sum(packetBytes) 4055640
attr interpolationmode none
attr recordingmode sum(packetBytes)
attr title "packets received, sum(packetBytes)"
scalar MixedWLAN.udphost[0].wlan[0].mac.dcf packetReceivedFromPeerUnicast:count 10022
attr interpolationmode none
attr recordingmode count
attr source ieee80211Unicast(packetReceivedFromPeer)
attr title "packets received: unicast, count"
scalar MixedWLAN.udphost[0].wlan[0].mac.dcf packetReceivedFromPeerUnicast:sum(packetBytes) 4055000
attr interpolationmode none
attr recordingmode sum(packetBytes)
attr source ieee80211Unicast(packetReceivedFromPeer)
attr title "packets received: unicast, sum(packetBytes)"
scalar MixedWLAN.udphost[0].wlan[0].mac.dcf packetReceivedFromPeerMulticast:count 10
attr interpolationmode none
attr recordingmode count
attr source ieee80211Multicast(packetReceivedFromPeer)
attr title "packets received: multicast, count"
scalar MixedWLAN.udphost[0].wlan[0].mac.dcf packetReceivedFromPeerMulticast:sum(packetBytes) 640
attr interpolationmode none
attr recordingmode sum(packetBytes)
attr source ieee80211Multicast(packetReceivedFromPeer)
attr title "packets received: multicast, sum(packetBytes)"
scalar MixedWLAN.udphost[0].wlan[0].mac.dcf packetReceivedFromPeerBroadcast:count 10
attr interpolationmode none
attr recordingmode count
attr source ieee80211Broadcast(packetReceivedFromPeer)
attr title "packets received: broadcast, count"
scalar MixedWLAN.udphost[0].wlan[0].mac.dcf packetReceivedFromPeerBroadcast:sum(packetBytes) 640
attr interpolationmode none
attr recordingmode sum(packetBytes)
attr source ieee80211Broadcast(packetReceivedFromPeer)
attr title "packets received: broadcast, sum(packetBytes)"
scalar MixedWLAN.udphost[0].wlan[0].mac.dcf packetReceivedFromPeerWithRetry:count 34
attr interpolationmode none
attr recordingmode count
attr source ieee80211Retry(packetReceivedFromPeer)
attr title "packets received: with retry, count"
scalar MixedWLAN.udphost[0].wlan[0].mac.dcf packetReceivedFromPeerWithRetry:sum(packetBytes) 25600
attr interpolationmode none
attr recordingmode sum(packetBytes)
attr source ieee80211Retry(packetReceivedFromPeer)
attr title "packets received: with retry, sum(packetBytes)"
scalar MixedWLAN.udphost[0].wlan[0].mac.dcf packetReceivedFromPeerWithoutRetry:count 9998
attr interpolationmode none
attr recordingmode count
attr source ieee80211NotRetry(packetReceivedFromPeer)
attr title "packets received: without retry, count"
scalar MixedWLAN.udphost[0].wlan[0].mac.dcf packetReceivedFromPeerWithoutRetry:sum(packetBytes) 4030040
attr interpolationmode none
attr recordingmode sum(packetBytes)
attr source ieee80211NotRetry(packetReceivedFromPeer)
attr title "packets received: without retry, sum(packetBytes)"
scalar MixedWLAN.udphost[0].wlan[0].mac.dcf packetSentToPeer:count 10024
attr interpolationmode none
attr recordingmode count
attr title "packets sent, count"
scalar MixedWLAN.udphost[0].wlan[0].mac.dcf packetSentToPeer:sum(packetBytes) 4058500
attr interpolationmode none
attr recordingmode sum(packetBytes)
attr title "packets sent, sum(packetBytes)"
scalar MixedWLAN.udphost[0].wlan[0].mac.dcf packetSentToPeerUnicast:count 10024
attr interpolationmode none
attr recordingmode count
attr source ieee80211Unicast(packetSentToPeer)
attr title "packets sent: unicast, count"
scalar MixedWLAN.udphost[0].wlan[0].mac.dcf packetSentToPeerUnicast:sum(packetBytes) 4058500
attr interpolationmode none
attr recordingmode sum(packetBytes)
attr source ieee80211Unicast(packetSentToPeer)
attr title "packets sent: unicast, sum(packetBytes)"
scalar MixedWLAN.udphost[0].wlan[0].mac.dcf packetSentToPeerMulticast:count 0
attr interpolationmode none
attr recordingmode count
attr source ieee80211Multicast(packetSentToPeer)
attr title "packets sent: multicast, count"
scalar MixedWLAN.udphost[0].wlan[0].mac.dcf packetSentToPeerMulticast:sum(packetBytes) 0
attr interpolationmode none
attr recordingmode sum(packetBytes)
attr source ieee80211Multicast(packetSentToPeer)
attr title "packets sent: multicast, sum(packetBytes)"
scalar MixedWLAN.udphost[0].wlan[0].mac.dcf packetSentToPeerBroadcast:count 0
attr interpolationmode none
attr recordingmode count
attr source ieee80211Broadcast(packetSentToPeer)
attr title "packets sent: broadcast , count"
scalar MixedWLAN.udphost[0].wlan[0].mac.dcf packetSentToPeerBroadcast:sum(packetBytes) 0
attr interpolationmode none
attr recordingmode sum(packetBytes)
attr source ieee80211Broadcast(packetSentToPeer)
attr title "packets sent: broadcast , sum(packetBytes)"
scalar MixedWLAN.udphost[0].wlan[0].mac.dcf packetSentToPeerWithRetry:count 2
attr interpolationmode none
attr recordingmode count
attr source ieee80211Retry(packetSentToPeer)
attr title "packets sent: with retry, count"
scalar MixedWLAN.udphost[0].wlan[0].mac.dcf packetSentToPeerWithRetry:sum(packetBytes) 3000
attr interpolationmode none
attr recordingmode sum(packetBytes)
attr source ieee80211Retry(packetSentToPeer)
attr title "packets sent: with retry, sum(packetBytes)"
scalar MixedWLAN.udphost[0].wlan[0].mac.dcf packetSentToPeerWithoutRetry:count 10022
attr interpolationmode none
attr recordingmode count
attr source ieee80211NotRetry(packetSentToPeer)
attr title "packets sent: without retry, count"
scalar MixedWLAN.udphost[0].wlan[0].mac.dcf packetSentToPeerWithoutRetry:sum(packetBytes) 4055500
attr interpolationmode none
attr recordingmode sum(packetBytes)
attr source ieee80211NotRetry(packetSentToPeer)
attr title "packets sent: without retry, sum(packetBytes)"
scalar MixedWLAN.udphost[0].wlan[0].mac.dcf packetDrop:count 20064
attr interpolationmode none
attr recordingmode count
attr source packetDropped
attr title "packet drops, count"
scalar MixedWLAN.udphost[0].wlan[0].mac.dcf packetDrop:sum(packetBytes) 8111280
attr interpolationmode none
attr recordingmode sum(packetBytes)
attr source packetDropped
attr title "packet drops, sum(packetBytes)"
scalar MixedWLAN.udphost[0].wlan[0].mac.dcf packetDropNotAddressedToUs:count 20064
attr interpolationmode none
attr recordingmode count
attr source packetDropReasonIsNotAddressedToUs(packetDropped)
attr title "packet drops: not addressed to us, count"
scalar MixedWLAN.udphost[0].wlan[0].mac.dcf packetDropNotAddressedToUs:sum(packetBytes) 8111280
attr interpolationmode none
attr recordingmode sum(packetBytes)
[...]
scalar MixedWLAN.ap.wlan[0].mac.dcf packetReceivedFromPeerWithoutRetry:count 20034
attr interpolationmode none
attr recordingmode count
attr source ieee80211NotRetry(packetReceivedFromPeer)
attr title "packets received: without retry, count"
scalar MixedWLAN.ap.wlan[0].mac.dcf packetReceivedFromPeerWithoutRetry:sum(packetBytes) 8084012
attr interpolationmode none
attr recordingmode sum(packetBytes)
attr source ieee80211NotRetry(packetReceivedFromPeer)
attr title "packets received: without retry, sum(packetBytes)"
scalar MixedWLAN.ap.wlan[0].mac.dcf packetSentToPeer:count 20064
attr interpolationmode none
attr recordingmode count
attr title "packets sent, count"
scalar MixedWLAN.ap.wlan[0].mac.dcf packetSentToPeer:sum(packetBytes) 8111280
attr interpolationmode none
attr recordingmode sum(packetBytes)
attr title "packets sent, sum(packetBytes)"
scalar MixedWLAN.ap.wlan[0].mac.dcf packetSentToPeerUnicast:count 20054
attr interpolationmode none
attr recordingmode count
attr source ieee80211Unicast(packetSentToPeer)
attr title "packets sent: unicast, count"
scalar MixedWLAN.ap.wlan[0].mac.dcf packetSentToPeerUnicast:sum(packetBytes) 8110640
attr interpolationmode none
attr recordingmode sum(packetBytes)
attr source ieee80211Unicast(packetSentToPeer)
attr title "packets sent: unicast, sum(packetBytes)"
scalar MixedWLAN.ap.wlan[0].mac.dcf packetSentToPeerMulticast:count 10
attr interpolationmode none
attr recordingmode count
attr source ieee80211Multicast(packetSentToPeer)
attr title "packets sent: multicast, count"
scalar MixedWLAN.ap.wlan[0].mac.dcf packetSentToPeerMulticast:sum(packetBytes) 640
attr interpolationmode none
attr recordingmode sum(packetBytes)
attr source ieee80211Multicast(packetSentToPeer)
attr title "packets sent: multicast, sum(packetBytes)"
scalar MixedWLAN.ap.wlan[0].mac.dcf packetSentToPeerBroadcast:count 10
attr interpolationmode none
attr recordingmode count
attr source ieee80211Broadcast(packetSentToPeer)
attr title "packets sent: broadcast , count"
scalar MixedWLAN.ap.wlan[0].mac.dcf packetSentToPeerBroadcast:sum(packetBytes) 640
attr interpolationmode none
attr recordingmode sum(packetBytes)
attr source ieee80211Broadcast(packetSentToPeer)
attr title "packets sent: broadcast , sum(packetBytes)"
scalar MixedWLAN.ap.wlan[0].mac.dcf packetSentToPeerWithRetry:count 38
attr interpolationmode none
attr recordingmode count
attr source ieee80211Retry(packetSentToPeer)
attr title "packets sent: with retry, count"
scalar MixedWLAN.ap.wlan[0].mac.dcf packetSentToPeerWithRetry:sum(packetBytes) 28784
attr interpolationmode none
attr recordingmode sum(packetBytes)
attr source ieee80211Retry(packetSentToPeer)
attr title "packets sent: with retry, sum(packetBytes)"
scalar MixedWLAN.ap.wlan[0].mac.dcf packetSentToPeerWithoutRetry:count 20026
attr interpolationmode none
attr recordingmode count
attr source ieee80211NotRetry(packetSentToPeer)
attr title "packets sent: without retry, count"
scalar MixedWLAN.ap.wlan[0].mac.dcf packetSentToPeerWithoutRetry:sum(packetBytes) 8082496
attr interpolationmode none
attr recordingmode sum(packetBytes)
attr source ieee80211NotRetry(packetSentToPeer)
attr title "packets sent: without retry, sum(packetBytes)"
scalar MixedWLAN.ap.wlan[0].mac.dcf packetDrop:count 0
attr interpolationmode none
attr recordingmode count
attr source packetDropped
attr title "packet drops, count"
scalar MixedWLAN.ap.wlan[0].mac.dcf packetDrop:sum(packetBytes) 0
attr interpolationmode none
attr recordingmode sum(packetBytes)
attr source packetDropped
attr title "packet drops, sum(packetBytes)"
scalar MixedWLAN.ap.wlan[0].mac.dcf packetDropNotAddressedToUs:count 0
attr interpolationmode none
attr recordingmode count
attr source packetDropReasonIsNotAddressedToUs(packetDropped)
attr title "packet drops: not addressed to us, count"
scalar MixedWLAN.ap.wlan[0].mac.dcf packetDropNotAddressedToUs:sum(packetBytes) 0
attr interpolationmode none
attr recordingmode sum(packetBytes)
attr source packetDropReasonIsNotAddressedToUs(packetDropped)
attr title "packet drops: not addressed to us, sum(packetBytes)"
scalar MixedWLAN.ap.wlan[0].mac.dcf packetDropQueueOverflow:count 0
attr interpolationmode none
attr recordingmode count
attr source packetDropReasonIsQueueOverflow(packetDropped)
attr title "packet drops: queue overflow, count"
scalar MixedWLAN.ap.wlan[0].mac.dcf packetDropQueueOverflow:sum(packetBytes) 0
attr interpolationmode none
attr recordingmode sum(packetBytes)
attr source packetDropReasonIsQueueOverflow(packetDropped)
attr title "packet drops: queue overflow, sum(packetBytes)"
scalar MixedWLAN.ap.wlan[0].mac.dcf packetDropRetryLimitReached:count 0
attr interpolationmode none
attr recordingmode count
attr source packetDropReasonIsRetryLimitReached(packetDropped)
attr title "packet drops: retry limit reached, count"
scalar MixedWLAN.ap.wlan[0].mac.dcf packetDropRetryLimitReached:sum(packetBytes) 0
attr interpolationmode none
attr recordingmode sum(packetBytes)
attr source packetDropReasonIsRetryLimitReached(packetDropped)
attr title "packet drops: retry limit reached, sum(packetBytes)"
scalar MixedWLAN.ap.wlan[0].mac.dcf linkBroken:count 0
attr interpolationmode none
attr recordingmode count
attr title "link breaks, count"
scalar MixedWLAN.ap.wlan[0].mac.dcf frameSequenceFinished:count 5026
attr recordingmode count
attr title "finished frame sequences, count"
statistic MixedWLAN.ap.wlan[0].mac.dcf frameSequenceDuration:histogram
field count 5026
field mean 0.00028351348188618
field stddev 1.2374838007935e-05
field min 6e-05
field max 0.00028440362
field sum 1.4249387599599
field sqrsum 0.00040475886080482
attr recordingmode histogram
attr source frameSequenceDuration(frameSequenceFinished)
attr title "frame sequence durations"
statistic MixedWLAN.ap.wlan[0].mac.dcf frameSequenceNumPackets:histogram
field count 5026
field mean 3.9900517309988
field stddev 0.16053553816807
field min 1
field max 4
field sum 20054
field sqrsum 80146
attr recordingmode histogram
attr source frameSequenceNumPackets(frameSequenceFinished)
attr title "frame sequences: number of packets"
par MixedWLAN.ap.wlan[0].mac.ds typename "\"inet.linklayer.ieee80211.mac.Ds\""
par MixedWLAN.ap.wlan[0].mac.ds mibModule "\"MixedWLAN.ap.wlan[0].mib\""
par MixedWLAN.ap.wlan[0].mac.rx typename "\"inet.linklayer.ieee80211.mac.Rx\""
par MixedWLAN.ap.wlan[0].mac.tx typename "\"inet.linklayer.ieee80211.mac.Tx\""
par MixedWLAN.ap.wlan[0].mac.tx rxModule "\"^.rx\""
par MixedWLAN.ap.wlan[0].mac typename "\"inet.linklayer.ieee80211.mac.Ieee80211Mac\""
par MixedWLAN.ap.wlan[0].mac interfaceTableModule "\"MixedWLAN.ap.interfaceTable\""
par MixedWLAN.ap.wlan[0].mac mibModule "\"MixedWLAN.ap.wlan[0].mib\""
par MixedWLAN.ap.wlan[0].mac modeSet "\"ac\""
attr enum a,b,g(erp),g(mixed),n(mixed-2.4Ghz),p,ac
par MixedWLAN.ap.wlan[0].mac fcsMode "\"declared\""
attr enum declared,computed
par MixedWLAN.ap.wlan[0].mac initialRadioMode "\"receiver\""
attr enum off,sleep,receiver,transmitter,transceiver
par MixedWLAN.ap.wlan[0].mac mtu 2304B
attr unit B
par MixedWLAN.ap.wlan[0].mac qosStation false
scalar MixedWLAN.ap.wlan[0].mac packetReceivedFromLower:count 20064
attr interpolationmode none
attr recordingmode count
attr title "packets received from lower layer, count"
scalar MixedWLAN.ap.wlan[0].mac packetReceivedFromLower:sum(packetBytes) 8124704
attr interpolationmode none
attr recordingmode sum(packetBytes)
attr title "packets received from lower layer, sum(packetBytes)"
scalar MixedWLAN.ap.wlan[0].mac packetSentToLower:count 20064
attr interpolationmode none
attr recordingmode count
attr title "packets sent to lower layer, count"
scalar MixedWLAN.ap.wlan[0].mac packetSentToLower:sum(packetBytes) 8111280
attr interpolationmode none
attr recordingmode sum(packetBytes)
attr title "packets sent to lower layer, sum(packetBytes)"
scalar MixedWLAN.ap.wlan[0].mac packetReceivedFromUpper:count 0
attr interpolationmode none
attr recordingmode count
attr title "packets received from upper layer, count"
scalar MixedWLAN.ap.wlan[0].mac packetReceivedFromUpper:sum(packetBytes) 0
attr interpolationmode none
attr recordingmode sum(packetBytes)
attr title "packets received from upper layer, sum(packetBytes)"
scalar MixedWLAN.ap.wlan[0].mac packetSentToUpper:count 10
attr interpolationmode none
attr recordingmode count
attr title "packets sent to upper layer, count"
scalar MixedWLAN.ap.wlan[0].mac packetSentToUpper:sum(packetBytes) 360
attr interpolationmode none
attr recordingmode sum(packetBytes)
attr title "packets sent to upper layer, sum(packetBytes)"
scalar MixedWLAN.ap.wlan[0].mac packetDrop:count 10
attr interpolationmode none
attr recordingmode count
attr source packetDropped
attr title "packet drops, count"
scalar MixedWLAN.ap.wlan[0].mac packetDrop:sum(packetBytes) 13564
attr interpolationmode none
attr recordingmode sum(packetBytes)
attr source packetDropped
attr title "packet drops, sum(packetBytes)"
scalar MixedWLAN.ap.wlan[0].mac packetDropIncorrectlyReceived:count 10
attr interpolationmode none
attr recordingmode count
attr source packetDropReasonIsIncorrectlyReceived(packetDropped)
attr title "packet drops: incorrectly received, count"
scalar MixedWLAN.ap.wlan[0].mac packetDropIncorrectlyReceived:sum(packetBytes) 13564
attr interpolationmode none
attr recordingmode sum(packetBytes)
attr source packetDropReasonIsIncorrectlyReceived(packetDropped)
attr title "packet drops: incorrectly received, sum(packetBytes)"
scalar MixedWLAN.ap.wlan[0].mac packetDropNotAddressedToUs:count 0
attr interpolationmode none
attr recordingmode count
attr source packetDropReasonIsNotAddressedToUs(packetDropped)
attr title "packet drops: not addressed to us, count"
scalar MixedWLAN.ap.wlan[0].mac packetDropNotAddressedToUs:sum(packetBytes) 0
attr interpolationmode none
attr recordingmode sum(packetBytes)
attr source packetDropReasonIsNotAddressedToUs(packetDropped)
attr title "packet drops: not addressed to us, sum(packetBytes)"
scalar MixedWLAN.ap.wlan[0].mac packetDropQueueOverflow:count 0
attr interpolationmode none
attr recordingmode count
attr source packetDropReasonIsQueueOverflow(packetDropped)
attr title "packet drops: queue overflow, count"
scalar MixedWLAN.ap.wlan[0].mac packetDropQueueOverflow:sum(packetBytes) 0
attr interpolationmode none
attr recordingmode sum(packetBytes)
attr source packetDropReasonIsQueueOverflow(packetDropped)
attr title "packet drops: queue overflow, sum(packetBytes)"
scalar MixedWLAN.ap.wlan[0].mac packetDropRetryLimitReached:count 0
attr interpolationmode none
attr recordingmode count
attr source packetDropReasonIsRetryLimitReached(packetDropped)
attr title "packet drops: retry limit reached, count"
scalar MixedWLAN.ap.wlan[0].mac packetDropRetryLimitReached:sum(packetBytes) 0
attr interpolationmode none
attr recordingmode sum(packetBytes)
attr source packetDropReasonIsRetryLimitReached(packetDropped)
attr title "packet drops: retry limit reached, sum(packetBytes)"
scalar MixedWLAN.ap.wlan[0].mac packetDropDuplicateDetected:count 0
attr interpolationmode none
attr recordingmode count
attr source packetDropReasonIsDuplicateDetected(packetDropped)
attr title "packet drops: duplicate detected, count"
scalar MixedWLAN.ap.wlan[0].mac packetDropDuplicateDetected:sum(packetBytes) 0
attr interpolationmode none
attr recordingmode sum(packetBytes)
attr source packetDropReasonIsDuplicateDetected(packetDropped)
attr title "packet drops: duplicate detected, sum(packetBytes)"
scalar MixedWLAN.ap.wlan[0].mac packetDropOther:count 0
attr interpolationmode none
attr recordingmode count
attr source packetDropReasonIsOther(packetDropped)
attr title "packet drops: other, count"
scalar MixedWLAN.ap.wlan[0].mac packetDropOther:sum(packetBytes) 0
attr interpolationmode none
attr recordingmode sum(packetBytes)
attr source packetDropReasonIsOther(packetDropped)
attr title "packet drops: other, sum(packetBytes)"
scalar MixedWLAN.ap.wlan[0].mac linkBroken:count 0
attr interpolationmode none
attr recordingmode count
attr title "link breaks, count"
par MixedWLAN.ap.wlan[0].radio.antenna typename "\"inet.physicallayer.wireless.common.antenna.IsotropicAntenna\""
par MixedWLAN.ap.wlan[0].radio.antenna mobilityModule "\"^.^.^.mobility\""
par MixedWLAN.ap.wlan[0].radio.antenna numAntennas 8
par MixedWLAN.ap.wlan[0].radio.transmitter typename "\"inet.physicallayer.wireless.ieee80211.packetlevel.Ieee80211ScalarTransmitter\""
par MixedWLAN.ap.wlan[0].radio.transmitter preambleDuration -1s
attr unit s
par MixedWLAN.ap.wlan[0].radio.transmitter headerLength 192b
attr unit b
par MixedWLAN.ap.wlan[0].radio.transmitter bitrate 4.333e+08bps
attr unit bps
par MixedWLAN.ap.wlan[0].radio.transmitter power 0.01W
attr unit W
par MixedWLAN.ap.wlan[0].radio.transmitter centerFrequency 5e+09Hz
attr unit Hz
par MixedWLAN.ap.wlan[0].radio.transmitter bandwidth "nan Hz"
attr unit Hz
par MixedWLAN.ap.wlan[0].radio.transmitter codeRate 1
par MixedWLAN.ap.wlan[0].radio.transmitter modulation "\"BPSK\""
par MixedWLAN.ap.wlan[0].radio.transmitter opMode "\"ac\""
attr enum a,b,g(erp),g(mixed),n(mixed-2.4Ghz),p,ac
par MixedWLAN.ap.wlan[0].radio.transmitter bandName "\"5 GHz (20 MHz)\""
attr enum "2.4 GHz,5 GHz,5 GHz (20 MHz),5 GHz (40 MHz),5 GHz (80 MHz),5 GHz (160 MHz),5.9 GHz"
par MixedWLAN.ap.wlan[0].radio.transmitter channelNumber 0
par MixedWLAN.ap.wlan[0].radio.receiver.errorModel typename "\"inet.physicallayer.wireless.ieee80211.packetlevel.errormodel.Ieee80211NistErrorModel\""
par MixedWLAN.ap.wlan[0].radio.receiver.errorModel corruptionMode "\"packet\""
attr enum packet,chunk,byte,bit
par MixedWLAN.ap.wlan[0].radio.receiver.errorModel snirMode "\"min\""
attr enum min,mean
par MixedWLAN.ap.wlan[0].radio.receiver.errorModel snirOffset 0dB
attr unit dB
par MixedWLAN.ap.wlan[0].radio.receiver typename "\"inet.physicallayer.wireless.ieee80211.packetlevel.Ieee80211ScalarReceiver\""
par MixedWLAN.ap.wlan[0].radio.receiver snirThreshold 4dB
attr unit dB
par MixedWLAN.ap.wlan[0].radio.receiver snirThresholdMode "\"min\""
attr enum min,mean
par MixedWLAN.ap.wlan[0].radio.receiver energyDetection -85dBm
attr unit dBm
par MixedWLAN.ap.wlan[0].radio.receiver sensitivity -85dBm
attr unit dBm
par MixedWLAN.ap.wlan[0].radio.receiver centerFrequency 2.412e+09Hz
attr unit Hz
par MixedWLAN.ap.wlan[0].radio.receiver bandwidth 2.2e+07Hz
attr unit Hz
par MixedWLAN.ap.wlan[0].radio.receiver modulation "\"BPSK\""
par MixedWLAN.ap.wlan[0].radio.receiver opMode "\"ac\""
attr enum a,b,g(erp),g(mixed),n(mixed-2.4Ghz),p,ac
par MixedWLAN.ap.wlan[0].radio.receiver bandName "\"5 GHz (20 MHz)\""
attr enum "2.4 GHz,5 GHz,5 GHz (20 MHz),5 GHz (40 MHz),5 GHz (80 MHz),5 GHz (160 MHz),5.9 GHz"
par MixedWLAN.ap.wlan[0].radio.receiver channelNumber 0
par MixedWLAN.ap.wlan[0].radio typename "\"inet.physicallayer.wireless.ieee80211.packetlevel.Ieee80211ScalarRadio\""
par MixedWLAN.ap.wlan[0].radio radioMediumModule "\"radioMedium\""
par MixedWLAN.ap.wlan[0].radio energySourceModule "\"\""
par MixedWLAN.ap.wlan[0].radio initialRadioMode "\"off\""
attr enum off,sleep,receiver,transmitter,transceiver
par MixedWLAN.ap.wlan[0].radio switchingTimes "\"ms 0 0 0 0 0 0 0 0 0 0 0 0 0 0 0 0 0 0 0 0 0 0 0 0 0\""
par MixedWLAN.ap.wlan[0].radio sendRawBytes false
par MixedWLAN.ap.wlan[0].radio separateTransmissionParts false
par MixedWLAN.ap.wlan[0].radio separateReceptionParts false
par MixedWLAN.ap.wlan[0].radio displayCommunicationRange false
par MixedWLAN.ap.wlan[0].radio displayInterferenceRange false
par MixedWLAN.ap.wlan[0].radio centerFrequency 2.412e+09Hz
attr unit Hz
par MixedWLAN.ap.wlan[0].radio bandwidth "nan Hz"
attr unit Hz
par MixedWLAN.ap.wlan[0].radio signalAnalogRepresentation "\"scalar\""
attr enum scalar,dimensional
par MixedWLAN.ap.wlan[0].radio opMode "\"ac\""
attr enum a,b,g(erp),g(mixed),n(mixed-2.4Ghz),p,ac
par MixedWLAN.ap.wlan[0].radio bandName "\"5 GHz (20 MHz)\""
attr enum "2.4 GHz,5 GHz,5 GHz (20 MHz),5 GHz (40 MHz),5 GHz (80 MHz),5 GHz (160 MHz),5.9 GHz"
par MixedWLAN.ap.wlan[0].radio channelNumber 0
par MixedWLAN.ap.wlan[0].radio crcMode "\"declared\""
attr enum declared,computed
statistic MixedWLAN.ap.wlan[0].radio minSnir:histogram
field count 20064
field mean 55730.746829817
field stddev 29064.54223265
field min 0.5143317220986
field max 156236.11442586
field sum 1118181704.3934
field sqrsum 79265272880912
attr recordingmode histogram
attr source minimumSnir(packetSentToUpper)
attr title "Min SNIR"
statistic MixedWLAN.ap.wlan[0].radio packetErrorRate:histogram
field count 20064
field mean 0.00049840510366826
field stddev 0.022319980413127
field min 0
field max 1
field sum 10
field sqrsum 10
attr recordingmode histogram
attr source packetErrorRate(packetSentToUpper)
attr title "Packet error rate"
statistic MixedWLAN.ap.wlan[0].radio bitErrorRate:histogram
field count 0
field mean nan
field stddev nan
field min nan
field max nan
field sum 0
field sqrsum 0
attr recordingmode histogram
attr source bitErrorRate(packetSentToUpper)
attr title "Bit error rate"
statistic MixedWLAN.ap.wlan[0].radio symbolErrorRate:histogram
field count 0
field mean nan
field stddev nan
field min nan
field max nan
field sum 0
field sqrsum 0
attr recordingmode histogram
attr source symbolErrorRate(packetSentToUpper)
attr title "Symbol error rate"
scalar MixedWLAN.ap.wlan[0].radio transmissionState:count 80256
attr interpolationmode sample-hold
attr recordingmode count
attr source transmissionStateChanged
attr title "Radio transmission state, count"
scalar MixedWLAN.ap.wlan[0].radio receptionState:count 80267
attr interpolationmode sample-hold
attr recordingmode count
attr source receptionStateChanged
attr title "Radio reception state, count"
scalar MixedWLAN.ap.wlan[0].radio radioMode:count 40131
attr interpolationmode sample-hold
attr recordingmode count
attr source radioModeChanged
attr title "Radio mode, count"
statistic MixedWLAN.ap.wlan[0].radio radioChannel:histogram
field count 1
field mean 0
field stddev nan
field min 0
field max 0
field sum 0
field sqrsum 0
attr interpolationmode sample-hold
attr recordingmode histogram
attr source radioChannelChanged
attr title "Radio channel"
par MixedWLAN.ap.wlan[0] typename "\"inet.linklayer.ieee80211.Ieee80211Interface\""
par MixedWLAN.ap.wlan[0] displayStringTextFormat "\"%a (%i)\\n%m\""
par MixedWLAN.ap.wlan[0] recordPcap false
par MixedWLAN.ap.wlan[0] numPcapRecorders 0
par MixedWLAN.ap.wlan[0] interfaceTableModule "\"MixedWLAN.ap.interfaceTable\""
par MixedWLAN.ap.wlan[0] energySourceModule "\"\""
par MixedWLAN.ap.wlan[0] opMode "\"ac\""
attr enum a,b,g(erp),g(mixed),n(mixed-2.4Ghz),p,ac
par MixedWLAN.ap.wlan[0] address "\"10:00:00:00:00:00\""
attr mutable ""
par MixedWLAN.ap.wlan[0] protocol "\"ethernetmac\""
par MixedWLAN.ap.wlan[0] bitrate 4.333e+08bps
attr unit bps
scalar MixedWLAN.ap.wlan[0] packetDropInterfaceDown:count 0
attr interpolationmode none
attr recordingmode count
attr source packetDropReasonIsInterfaceDown(packetDropped)
attr title "packet drops: interface down, count"
scalar MixedWLAN.ap.wlan[0] packetDropInterfaceDown:sum(packetBytes) 0
attr interpolationmode none
attr recordingmode sum(packetBytes)
attr source packetDropReasonIsInterfaceDown(packetDropped)
attr title "packet drops: interface down, sum(packetBytes)"
scalar MixedWLAN.ap.wlan[0] packetDropNoCarrier:count 0
attr interpolationmode none
attr recordingmode count
attr source packetDropReasonIsNoCarrier(packetDropped)
attr title "packet drops: no carrier, count"
scalar MixedWLAN.ap.wlan[0] packetDropNoCarrier:sum(packetBytes) 0
attr interpolationmode none
attr recordingmode sum(packetBytes)
attr source packetDropReasonIsNoCarrier(packetDropped)
attr title "packet drops: no carrier, sum(packetBytes)"
par MixedWLAN.ap typename "\"inet.node.wireless.AccessPoint\""
par MixedWLAN.ap numWlanInterfaces 1
par MixedWLAN.ap hasStatus false
par MixedWLAN.ap fcsMode "\"declared\""
attr enum declared,computed
par MixedWLAN typename "\"projectdta.simulations.MixedWLAN\""
par MixedWLAN numHostsUDP 11
par MixedWLAN numHostsTCP 0

