version 3
run UDP10-0-20241031-17:59:15-14592
attr configname UDP10
attr datetime 20241031-17:59:15
attr datetimef 20241031-175915
attr experiment UDP10
attr inifile omnetpp.ini
attr iterationvars ""
attr iterationvarsd ""
attr iterationvarsf ""
attr measurement ""
attr network MixedWLAN
attr processid 14592
attr repetition 0
attr replication #0
attr resultdir results
attr runnumber 0
attr seedset 0
config image-path ../../inet4.5/images
config **.numHostsTCP 0
config **.numHostsUDP 11
config network MixedWLAN
config sim-time-limit 10s
config **.mac.**.vector-recording false
config **.mac.**.bin-recording false
config **.tcp.**.vector-recording false
config **.tcp.**.bin-recording false
config **.radio.**.vector-recording false
config **.radio.**.bin-recording false
config **.constraintAreaMinX 0m
config **.constraintAreaMinY 0m
config **.constraintAreaMinZ 0m
config **.constraintAreaMaxX 50m
config **.constraintAreaMaxY 50m
config **.constraintAreaMaxZ 0m
config **.ap.wlan[*].address "\"10:00:00:00:00:00\""
config **.*host*.**.mgmt.accessPointAddress "\"10:00:00:00:00:00\""
config **.numApps 1
config **.udphost[0].app[*].typename UdpEchoApp
config **.udphost[0].app[*].localPort 3088
config **.udphost[*].app[*].typename UdpBasicApp
config **.udphost[*].app[*].destAddresses "\"udphost[0]\""
config **.udphost[*].app[*].messageLength 1500B
config **.udphost[*].app[*].sendInterval "40ms + uniform(-5ms, 5ms)"
config **.udphost[*].app[*].destPort 3088
config **.udphost[*].app[*].startTime 0s
config **.udphost[*].app[*].stopTime -1s
config **.tcphost[0].numApps 1
config **.tcphost[0].app[*].typename TcpGenericServerApp
config **.tcphost[0].app[0].localPort 1000
config **.tcphost[0].app[0].active true
config **.tcphost[*].numApps 1
config **.tcphost[*].app[*].typename TcpBasicClientApp
config **.tcphost[*].app[0].active true
config **.tcphost[*].app[0].connectAddress "\"tcphost[0]\""
config **.tcphost[*].app[0].connectPort 1000
config **.tcphost[*].app[0].startTime 0s
config **.tcphost[*].app[0].stopTime -1s
config **.tcphost[*].app[0].thinkTime 0s
config **.tcphost[*].app[0].idleInterval "40ms + uniform(-5ms, 5ms)"
config **.tcphost[*].app[0].reconnectInterval 0s
config **.tcphost[*].app[0].numRequestsPerSession 1
config **.tcphost[*].app[0].requestLength 1500B
config **.tcphost[*].app[0].replyLength 1500B
config **.wlan[*].bitrate 433.3Mbps
config **.wlan[*].mac.dcf.channelAccess.pendingQueue.packetCapacity 40
config **.wlan[*].mac.dcf.channelAccess.cwMin 20
config **.bandName "\"5 GHz (20 MHz)\""
config **.opMode "\"ac\""
config **.wlan[*].radio.antenna.numAntennas 8
config **.wlan[*].radio.transmitter.power 10mW
config **.wlan[*].radio.transmitter.headerLength 192b
config **.wlan[*].radio.transmitter.centerFrequency 5GHz
config **.wlan[*].radio.receiver.sensitivity -85dBm
config **.wlan[*].radio.receiver.snirThreshold 4dB

vector 0 MixedWLAN.udphost[0].udp passedUpPk:vector(count) ETV
attr interpolationmode none
attr recordingmode vector(count)
attr source packetSentToUpper
attr title "packets passed up, count"
vector 1 MixedWLAN.udphost[0].udp droppedPkWrongPort:vector(count) ETV
attr interpolationmode none
attr recordingmode vector(count)
attr source packetDropReasonIsNoPortFound(packetDropped)
attr title "packets dropped (wrong port), count"
vector 2 MixedWLAN.udphost[0].udp droppedPkBadChecksum:vector(count) ETV
attr interpolationmode none
attr recordingmode vector(count)
attr source packetDropReasonIsIncorrectlyReceived(packetDropped)
attr title "packets dropped (checksum error), count"
vector 3 MixedWLAN.udphost[1].udp passedUpPk:vector(count) ETV
attr interpolationmode none
attr recordingmode vector(count)
attr source packetSentToUpper
attr title "packets passed up, count"
vector 4 MixedWLAN.udphost[1].udp droppedPkWrongPort:vector(count) ETV
attr interpolationmode none
attr recordingmode vector(count)
attr source packetDropReasonIsNoPortFound(packetDropped)
attr title "packets dropped (wrong port), count"
vector 5 MixedWLAN.udphost[1].udp droppedPkBadChecksum:vector(count) ETV
attr interpolationmode none
attr recordingmode vector(count)
attr source packetDropReasonIsIncorrectlyReceived(packetDropped)
attr title "packets dropped (checksum error), count"
vector 6 MixedWLAN.udphost[2].udp passedUpPk:vector(count) ETV
attr interpolationmode none
attr recordingmode vector(count)
attr source packetSentToUpper
attr title "packets passed up, count"
vector 7 MixedWLAN.udphost[2].udp droppedPkWrongPort:vector(count) ETV
attr interpolationmode none
attr recordingmode vector(count)
attr source packetDropReasonIsNoPortFound(packetDropped)
attr title "packets dropped (wrong port), count"
vector 8 MixedWLAN.udphost[2].udp droppedPkBadChecksum:vector(count) ETV
attr interpolationmode none
attr recordingmode vector(count)
attr source packetDropReasonIsIncorrectlyReceived(packetDropped)
attr title "packets dropped (checksum error), count"
vector 9 MixedWLAN.udphost[3].udp passedUpPk:vector(count) ETV
attr interpolationmode none
attr recordingmode vector(count)
attr source packetSentToUpper
attr title "packets passed up, count"
vector 10 MixedWLAN.udphost[3].udp droppedPkWrongPort:vector(count) ETV
attr interpolationmode none
attr recordingmode vector(count)
attr source packetDropReasonIsNoPortFound(packetDropped)
attr title "packets dropped (wrong port), count"
vector 11 MixedWLAN.udphost[3].udp droppedPkBadChecksum:vector(count) ETV
attr interpolationmode none
attr recordingmode vector(count)
attr source packetDropReasonIsIncorrectlyReceived(packetDropped)
attr title "packets dropped (checksum error), count"
vector 12 MixedWLAN.udphost[4].udp passedUpPk:vector(count) ETV
attr interpolationmode none
attr recordingmode vector(count)
attr source packetSentToUpper
attr title "packets passed up, count"
vector 13 MixedWLAN.udphost[4].udp droppedPkWrongPort:vector(count) ETV
attr interpolationmode none
attr recordingmode vector(count)
attr source packetDropReasonIsNoPortFound(packetDropped)
attr title "packets dropped (wrong port), count"
vector 14 MixedWLAN.udphost[4].udp droppedPkBadChecksum:vector(count) ETV
attr interpolationmode none
attr recordingmode vector(count)
attr source packetDropReasonIsIncorrectlyReceived(packetDropped)
attr title "packets dropped (checksum error), count"
vector 15 MixedWLAN.udphost[5].udp passedUpPk:vector(count) ETV
attr interpolationmode none
attr recordingmode vector(count)
attr source packetSentToUpper
attr title "packets passed up, count"
vector 16 MixedWLAN.udphost[5].udp droppedPkWrongPort:vector(count) ETV
attr interpolationmode none
attr recordingmode vector(count)
attr source packetDropReasonIsNoPortFound(packetDropped)
attr title "packets dropped (wrong port), count"
vector 17 MixedWLAN.udphost[5].udp droppedPkBadChecksum:vector(count) ETV
attr interpolationmode none
attr recordingmode vector(count)
attr source packetDropReasonIsIncorrectlyReceived(packetDropped)
attr title "packets dropped (checksum error), count"
vector 18 MixedWLAN.udphost[6].udp passedUpPk:vector(count) ETV
attr interpolationmode none
attr recordingmode vector(count)
attr source packetSentToUpper
attr title "packets passed up, count"
vector 19 MixedWLAN.udphost[6].udp droppedPkWrongPort:vector(count) ETV
attr interpolationmode none
attr recordingmode vector(count)
attr source packetDropReasonIsNoPortFound(packetDropped)
attr title "packets dropped (wrong port), count"
vector 20 MixedWLAN.udphost[6].udp droppedPkBadChecksum:vector(count) ETV
attr interpolationmode none
attr recordingmode vector(count)
attr source packetDropReasonIsIncorrectlyReceived(packetDropped)
attr title "packets dropped (checksum error), count"
vector 21 MixedWLAN.udphost[7].udp passedUpPk:vector(count) ETV
attr interpolationmode none
attr recordingmode vector(count)
attr source packetSentToUpper
attr title "packets passed up, count"
vector 22 MixedWLAN.udphost[7].udp droppedPkWrongPort:vector(count) ETV
attr interpolationmode none
attr recordingmode vector(count)
attr source packetDropReasonIsNoPortFound(packetDropped)
attr title "packets dropped (wrong port), count"
vector 23 MixedWLAN.udphost[7].udp droppedPkBadChecksum:vector(count) ETV
attr interpolationmode none
attr recordingmode vector(count)
attr source packetDropReasonIsIncorrectlyReceived(packetDropped)
attr title "packets dropped (checksum error), count"
vector 24 MixedWLAN.udphost[8].udp passedUpPk:vector(count) ETV
attr interpolationmode none
attr recordingmode vector(count)
attr source packetSentToUpper
attr title "packets passed up, count"
vector 25 MixedWLAN.udphost[8].udp droppedPkWrongPort:vector(count) ETV
attr interpolationmode none
attr recordingmode vector(count)
attr source packetDropReasonIsNoPortFound(packetDropped)
attr title "packets dropped (wrong port), count"
vector 26 MixedWLAN.udphost[8].udp droppedPkBadChecksum:vector(count) ETV
attr interpolationmode none
attr recordingmode vector(count)
attr source packetDropReasonIsIncorrectlyReceived(packetDropped)
attr title "packets dropped (checksum error), count"
vector 27 MixedWLAN.udphost[9].udp passedUpPk:vector(count) ETV
attr interpolationmode none
attr recordingmode vector(count)
attr source packetSentToUpper
attr title "packets passed up, count"
vector 28 MixedWLAN.udphost[9].udp droppedPkWrongPort:vector(count) ETV
attr interpolationmode none
attr recordingmode vector(count)
attr source packetDropReasonIsNoPortFound(packetDropped)
attr title "packets dropped (wrong port), count"
vector 29 MixedWLAN.udphost[9].udp droppedPkBadChecksum:vector(count) ETV
attr interpolationmode none
attr recordingmode vector(count)
attr source packetDropReasonIsIncorrectlyReceived(packetDropped)
attr title "packets dropped (checksum error), count"
vector 30 MixedWLAN.udphost[10].udp passedUpPk:vector(count) ETV
attr interpolationmode none
attr recordingmode vector(count)
attr source packetSentToUpper
attr title "packets passed up, count"
vector 31 MixedWLAN.udphost[10].udp droppedPkWrongPort:vector(count) ETV
attr interpolationmode none
attr recordingmode vector(count)
attr source packetDropReasonIsNoPortFound(packetDropped)
attr title "packets dropped (wrong port), count"
vector 32 MixedWLAN.udphost[10].udp droppedPkBadChecksum:vector(count) ETV
attr interpolationmode none
attr recordingmode vector(count)
attr source packetDropReasonIsIncorrectlyReceived(packetDropped)
attr title "packets dropped (checksum error), count"
vector 33 MixedWLAN.udphost[1].app[0] packetSent:vector(packetBytes) ETV
attr interpolationmode none
attr recordingmode vector(packetBytes)
attr source packetSent
attr title "packets sent, packetBytes"
vector 34 MixedWLAN.udphost[2].app[0] packetSent:vector(packetBytes) ETV
attr interpolationmode none
attr recordingmode vector(packetBytes)
attr source packetSent
attr title "packets sent, packetBytes"
vector 35 MixedWLAN.udphost[3].app[0] packetSent:vector(packetBytes) ETV
attr interpolationmode none
attr recordingmode vector(packetBytes)
attr source packetSent
attr title "packets sent, packetBytes"
vector 36 MixedWLAN.udphost[4].app[0] packetSent:vector(packetBytes) ETV
attr interpolationmode none
attr recordingmode vector(packetBytes)
attr source packetSent
attr title "packets sent, packetBytes"
vector 37 MixedWLAN.udphost[5].app[0] packetSent:vector(packetBytes) ETV
attr interpolationmode none
attr recordingmode vector(packetBytes)
attr source packetSent
attr title "packets sent, packetBytes"
vector 38 MixedWLAN.udphost[6].app[0] packetSent:vector(packetBytes) ETV
attr interpolationmode none
attr recordingmode vector(packetBytes)
attr source packetSent
attr title "packets sent, packetBytes"
vector 39 MixedWLAN.udphost[7].app[0] packetSent:vector(packetBytes) ETV
attr interpolationmode none
attr recordingmode vector(packetBytes)
attr source packetSent
attr title "packets sent, packetBytes"
vector 40 MixedWLAN.udphost[8].app[0] packetSent:vector(packetBytes) ETV
attr interpolationmode none
attr recordingmode vector(packetBytes)
attr source packetSent
attr title "packets sent, packetBytes"
vector 41 MixedWLAN.udphost[9].app[0] packetSent:vector(packetBytes) ETV
attr interpolationmode none
attr recordingmode vector(packetBytes)
attr source packetSent
attr title "packets sent, packetBytes"
vector 42 MixedWLAN.udphost[10].app[0] packetSent:vector(packetBytes) ETV
attr interpolationmode none
attr recordingmode vector(packetBytes)
attr source packetSent
attr title "packets sent, packetBytes"
vector 43 MixedWLAN.udphost[1].udp packetSent:vector(packetBytes) ETV
attr interpolationmode none
attr recordingmode vector(packetBytes)
attr source packetSent
attr title "packets sent, packetBytes"
vector 44 MixedWLAN.udphost[2].udp packetSent:vector(packetBytes) ETV
attr interpolationmode none
attr recordingmode vector(packetBytes)
attr source packetSent
attr title "packets sent, packetBytes"
vector 45 MixedWLAN.udphost[3].udp packetSent:vector(packetBytes) ETV
attr interpolationmode none
attr recordingmode vector(packetBytes)
attr source packetSent
attr title "packets sent, packetBytes"
vector 46 MixedWLAN.udphost[4].udp packetSent:vector(packetBytes) ETV
attr interpolationmode none
attr recordingmode vector(packetBytes)
attr source packetSent
attr title "packets sent, packetBytes"
vector 47 MixedWLAN.udphost[5].udp packetSent:vector(packetBytes) ETV
attr interpolationmode none
attr recordingmode vector(packetBytes)
attr source packetSent
attr title "packets sent, packetBytes"
vector 48 MixedWLAN.udphost[6].udp packetSent:vector(packetBytes) ETV
attr interpolationmode none
attr recordingmode vector(packetBytes)
attr source packetSent
attr title "packets sent, packetBytes"
vector 49 MixedWLAN.udphost[7].udp packetSent:vector(packetBytes) ETV
attr interpolationmode none
attr recordingmode vector(packetBytes)
attr source packetSent
attr title "packets sent, packetBytes"
vector 50 MixedWLAN.udphost[8].udp packetSent:vector(packetBytes) ETV
attr interpolationmode none
attr recordingmode vector(packetBytes)
attr source packetSent
attr title "packets sent, packetBytes"
vector 51 MixedWLAN.udphost[9].udp packetSent:vector(packetBytes) ETV
attr interpolationmode none
attr recordingmode vector(packetBytes)
attr source packetSent
attr title "packets sent, packetBytes"
vector 52 MixedWLAN.udphost[10].udp packetSent:vector(packetBytes) ETV
attr interpolationmode none
attr recordingmode vector(packetBytes)
attr source packetSent
attr title "packets sent, packetBytes"
vector 53 MixedWLAN.udphost[1].ipv4.arp arpRequestSent:vector(packetBytes) ETV
attr recordingmode vector(packetBytes)
attr source arpRequestSent
attr title "ARP request sent, packetBytes"
vector 54 MixedWLAN.udphost[2].ipv4.arp arpRequestSent:vector(packetBytes) ETV
attr recordingmode vector(packetBytes)
attr source arpRequestSent
attr title "ARP request sent, packetBytes"
vector 55 MixedWLAN.udphost[3].ipv4.arp arpRequestSent:vector(packetBytes) ETV
attr recordingmode vector(packetBytes)
attr source arpRequestSent
attr title "ARP request sent, packetBytes"
vector 56 MixedWLAN.udphost[4].ipv4.arp arpRequestSent:vector(packetBytes) ETV
attr recordingmode vector(packetBytes)
attr source arpRequestSent
attr title "ARP request sent, packetBytes"
vector 57 MixedWLAN.udphost[5].ipv4.arp arpRequestSent:vector(packetBytes) ETV
attr recordingmode vector(packetBytes)
attr source arpRequestSent
attr title "ARP request sent, packetBytes"
vector 58 MixedWLAN.udphost[6].ipv4.arp arpRequestSent:vector(packetBytes) ETV
attr recordingmode vector(packetBytes)
attr source arpRequestSent
attr title "ARP request sent, packetBytes"
vector 59 MixedWLAN.udphost[7].ipv4.arp arpRequestSent:vector(packetBytes) ETV
attr recordingmode vector(packetBytes)
attr source arpRequestSent
attr title "ARP request sent, packetBytes"
vector 60 MixedWLAN.udphost[8].ipv4.arp arpRequestSent:vector(packetBytes) ETV
attr recordingmode vector(packetBytes)
attr source arpRequestSent
attr title "ARP request sent, packetBytes"
vector 61 MixedWLAN.udphost[9].ipv4.arp arpRequestSent:vector(packetBytes) ETV
attr recordingmode vector(packetBytes)
attr source arpRequestSent
attr title "ARP request sent, packetBytes"
vector 62 MixedWLAN.udphost[10].ipv4.arp arpRequestSent:vector(packetBytes) ETV
attr recordingmode vector(packetBytes)
attr source arpRequestSent
attr title "ARP request sent, packetBytes"
vector 63 MixedWLAN.udphost[0].ipv4.arp arpReplySent:vector(packetBytes) ETV
attr recordingmode vector(packetBytes)
attr source arpReplySent
attr title "ARP replies sent, packetBytes"
vector 64 MixedWLAN.udphost[0].udp packetReceived:vector(packetBytes) ETV
attr interpolationmode none
attr recordingmode vector(packetBytes)
attr source packetReceived
attr title "packets received, packetBytes"
vector 65 MixedWLAN.udphost[0].app[0] echoedPk:vector(packetBytes) ETV
attr interpolationmode none
attr recordingmode vector(packetBytes)
attr source packetSent
attr title "packets echoed, packetBytes"
vector 66 MixedWLAN.udphost[0].udp packetSent:vector(packetBytes) ETV
attr interpolationmode none
attr recordingmode vector(packetBytes)
attr source packetSent
attr title "packets sent, packetBytes"
vector 67 MixedWLAN.udphost[5].udp packetReceived:vector(packetBytes) ETV
attr interpolationmode none
attr recordingmode vector(packetBytes)
attr source packetReceived
attr title "packets received, packetBytes"
vector 68 MixedWLAN.udphost[5].app[0] packetReceived:vector(packetBytes) ETV
attr interpolationmode none
attr recordingmode vector(packetBytes)
attr source packetReceived
attr title "packets received, packetBytes"
vector 69 MixedWLAN.udphost[5].app[0] rcvdPkLifetime:vector ETV
attr interpolationmode none
attr recordingmode vector
attr source dataAge(packetReceived)
attr title "received packet lifetime"
attr unit s
vector 70 MixedWLAN.udphost[5].app[0] rcvdPkSeqNo:vector ETV
attr interpolationmode none
attr recordingmode vector
attr source appPkSeqNo(packetReceived)
attr title "received packet sequence number"
vector 71 MixedWLAN.udphost[7].udp packetReceived:vector(packetBytes) ETV
attr interpolationmode none
attr recordingmode vector(packetBytes)
attr source packetReceived
attr title "packets received, packetBytes"
vector 72 MixedWLAN.udphost[7].app[0] packetReceived:vector(packetBytes) ETV
attr interpolationmode none
attr recordingmode vector(packetBytes)
attr source packetReceived
attr title "packets received, packetBytes"
vector 73 MixedWLAN.udphost[7].app[0] rcvdPkLifetime:vector ETV
attr interpolationmode none
attr recordingmode vector
attr source dataAge(packetReceived)
attr title "received packet lifetime"
attr unit s
vector 74 MixedWLAN.udphost[7].app[0] rcvdPkSeqNo:vector ETV
attr interpolationmode none
attr recordingmode vector
attr source appPkSeqNo(packetReceived)
attr title "received packet sequence number"
vector 75 MixedWLAN.udphost[9].udp packetReceived:vector(packetBytes) ETV
attr interpolationmode none
attr recordingmode vector(packetBytes)
attr source packetReceived
attr title "packets received, packetBytes"
vector 76 MixedWLAN.udphost[9].app[0] packetReceived:vector(packetBytes) ETV
attr interpolationmode none
attr recordingmode vector(packetBytes)
attr source packetReceived
attr title "packets received, packetBytes"
vector 77 MixedWLAN.udphost[9].app[0] rcvdPkLifetime:vector ETV
attr interpolationmode none
attr recordingmode vector
attr source dataAge(packetReceived)
attr title "received packet lifetime"
attr unit s
vector 78 MixedWLAN.udphost[9].app[0] rcvdPkSeqNo:vector ETV
attr interpolationmode none
attr recordingmode vector
attr source appPkSeqNo(packetReceived)
attr title "received packet sequence number"
vector 79 MixedWLAN.udphost[1].udp packetReceived:vector(packetBytes) ETV
attr interpolationmode none
attr recordingmode vector(packetBytes)
attr source packetReceived
attr title "packets received, packetBytes"
vector 80 MixedWLAN.udphost[1].app[0] packetReceived:vector(packetBytes) ETV
attr interpolationmode none
attr recordingmode vector(packetBytes)
attr source packetReceived
attr title "packets received, packetBytes"
vector 81 MixedWLAN.udphost[1].app[0] rcvdPkLifetime:vector ETV
attr interpolationmode none
attr recordingmode vector
attr source dataAge(packetReceived)
attr title "received packet lifetime"
attr unit s
vector 82 MixedWLAN.udphost[1].app[0] rcvdPkSeqNo:vector ETV
attr interpolationmode none
attr recordingmode vector
attr source appPkSeqNo(packetReceived)
attr title "received packet sequence number"
vector 83 MixedWLAN.udphost[2].udp packetReceived:vector(packetBytes) ETV
attr interpolationmode none
attr recordingmode vector(packetBytes)
attr source packetReceived
attr title "packets received, packetBytes"
vector 84 MixedWLAN.udphost[2].app[0] packetReceived:vector(packetBytes) ETV
attr interpolationmode none
attr recordingmode vector(packetBytes)
attr source packetReceived
attr title "packets received, packetBytes"
vector 85 MixedWLAN.udphost[2].app[0] rcvdPkLifetime:vector ETV
attr interpolationmode none
attr recordingmode vector
attr source dataAge(packetReceived)
attr title "received packet lifetime"
attr unit s
vector 86 MixedWLAN.udphost[2].app[0] rcvdPkSeqNo:vector ETV
attr interpolationmode none
attr recordingmode vector
attr source appPkSeqNo(packetReceived)
attr title "received packet sequence number"
vector 87 MixedWLAN.udphost[8].udp packetReceived:vector(packetBytes) ETV
attr interpolationmode none
attr recordingmode vector(packetBytes)
attr source packetReceived
attr title "packets received, packetBytes"
vector 88 MixedWLAN.udphost[8].app[0] packetReceived:vector(packetBytes) ETV
attr interpolationmode none
attr recordingmode vector(packetBytes)
attr source packetReceived
attr title "packets received, packetBytes"
vector 89 MixedWLAN.udphost[8].app[0] rcvdPkLifetime:vector ETV
attr interpolationmode none
attr recordingmode vector
attr source dataAge(packetReceived)
attr title "received packet lifetime"
attr unit s
vector 90 MixedWLAN.udphost[8].app[0] rcvdPkSeqNo:vector ETV
attr interpolationmode none
attr recordingmode vector
attr source appPkSeqNo(packetReceived)
attr title "received packet sequence number"
vector 91 MixedWLAN.udphost[6].udp packetReceived:vector(packetBytes) ETV
attr interpolationmode none
attr recordingmode vector(packetBytes)
attr source packetReceived
attr title "packets received, packetBytes"
vector 92 MixedWLAN.udphost[6].app[0] packetReceived:vector(packetBytes) ETV
attr interpolationmode none
attr recordingmode vector(packetBytes)
attr source packetReceived
attr title "packets received, packetBytes"
vector 93 MixedWLAN.udphost[6].app[0] rcvdPkLifetime:vector ETV
attr interpolationmode none
attr recordingmode vector
attr source dataAge(packetReceived)
attr title "received packet lifetime"
attr unit s
vector 94 MixedWLAN.udphost[6].app[0] rcvdPkSeqNo:vector ETV
attr interpolationmode none
attr recordingmode vector
attr source appPkSeqNo(packetReceived)
attr title "received packet sequence number"
vector 95 MixedWLAN.udphost[3].udp packetReceived:vector(packetBytes) ETV
attr interpolationmode none
attr recordingmode vector(packetBytes)
attr source packetReceived
attr title "packets received, packetBytes"
vector 96 MixedWLAN.udphost[3].app[0] packetReceived:vector(packetBytes) ETV
attr interpolationmode none
attr recordingmode vector(packetBytes)
attr source packetReceived
attr title "packets received, packetBytes"
vector 97 MixedWLAN.udphost[3].app[0] rcvdPkLifetime:vector ETV
attr interpolationmode none
attr recordingmode vector
attr source dataAge(packetReceived)
attr title "received packet lifetime"
attr unit s
vector 98 MixedWLAN.udphost[3].app[0] rcvdPkSeqNo:vector ETV
attr interpolationmode none
attr recordingmode vector
attr source appPkSeqNo(packetReceived)
attr title "received packet sequence number"
vector 99 MixedWLAN.udphost[4].udp packetReceived:vector(packetBytes) ETV
attr interpolationmode none
attr recordingmode vector(packetBytes)
attr source packetReceived
attr title "packets received, packetBytes"
vector 100 MixedWLAN.udphost[4].app[0] packetReceived:vector(packetBytes) ETV
attr interpolationmode none
attr recordingmode vector(packetBytes)
attr source packetReceived
attr title "packets received, packetBytes"
vector 101 MixedWLAN.udphost[4].app[0] rcvdPkLifetime:vector ETV
attr interpolationmode none
attr recordingmode vector
attr source dataAge(packetReceived)
attr title "received packet lifetime"
attr unit s
vector 102 MixedWLAN.udphost[4].app[0] rcvdPkSeqNo:vector ETV
attr interpolationmode none
attr recordingmode vector
attr source appPkSeqNo(packetReceived)
attr title "received packet sequence number"
vector 103 MixedWLAN.udphost[10].udp packetReceived:vector(packetBytes) ETV
attr interpolationmode none
attr recordingmode vector(packetBytes)
attr source packetReceived
attr title "packets received, packetBytes"
vector 104 MixedWLAN.udphost[10].app[0] packetReceived:vector(packetBytes) ETV
attr interpolationmode none
attr recordingmode vector(packetBytes)
attr source packetReceived
attr title "packets received, packetBytes"
vector 105 MixedWLAN.udphost[10].app[0] rcvdPkLifetime:vector ETV
attr interpolationmode none
attr recordingmode vector
attr source dataAge(packetReceived)
attr title "received packet lifetime"
attr unit s
vector 106 MixedWLAN.udphost[10].app[0] rcvdPkSeqNo:vector ETV
attr interpolationmode none
attr recordingmode vector
attr source appPkSeqNo(packetReceived)
attr title "received packet sequence number"
vector 107 MixedWLAN.udphost[9].app[0] throughput:vector ETV
attr recordingmode vector
attr source throughput(packetReceived)
attr title throughput
attr unit bps
vector 108 MixedWLAN.udphost[5].app[0] throughput:vector ETV
attr recordingmode vector
attr source throughput(packetReceived)
attr title throughput
attr unit bps
vector 109 MixedWLAN.udphost[2].app[0] throughput:vector ETV
attr recordingmode vector
attr source throughput(packetReceived)
attr title throughput
attr unit bps
vector 110 MixedWLAN.udphost[6].app[0] throughput:vector ETV
attr recordingmode vector
attr source throughput(packetReceived)
attr title throughput
attr unit bps
vector 111 MixedWLAN.udphost[1].app[0] throughput:vector ETV
attr recordingmode vector
attr source throughput(packetReceived)
attr title throughput
attr unit bps
vector 112 MixedWLAN.udphost[3].app[0] throughput:vector ETV
attr recordingmode vector
attr source throughput(packetReceived)
attr title throughput
attr unit bps
vector 113 MixedWLAN.udphost[4].app[0] throughput:vector ETV
attr recordingmode vector
attr source throughput(packetReceived)
attr title throughput
attr unit bps
vector 114 MixedWLAN.udphost[8].app[0] throughput:vector ETV
attr recordingmode vector
attr source throughput(packetReceived)
attr title throughput
attr unit bps
vector 115 MixedWLAN.udphost[10].app[0] throughput:vector ETV
attr recordingmode vector
attr source throughput(packetReceived)
attr title throughput
attr unit bps
vector 116 MixedWLAN.udphost[7].app[0] throughput:vector ETV
attr recordingmode vector
attr source throughput(packetReceived)
attr title throughput
attr unit bps
0	0	0	0
0	4467	0.009571451317	1
0	5440	0.011639864927	2
0	5962	0.012822140387	3
0	6310	0.013652292047	4
0	6488	0.014067292047	5
0	6665	0.014410292047	6
0	6844	0.014780292047	7
0	7194	0.015538443707	8
0	7543	0.016278595367	9
0	8756	0.018859764948	10
0	10781	0.03623252234	11
0	11466	0.039333392305	12
0	12151	0.040831848206	13
0	13529	0.04379273814	14
0	14043	0.044930062518	15
0	14386	0.045697358439	16
0	14735	0.046419510099	17
0	14914	0.046762510099	18
0	15093	0.047204510099	19
0	15606	0.048368661759	20
0	17791	0.077940274583	21
0	18653	0.08013681157	22
0	18833	0.08055181157	23
0	19857	0.082646439728	24
0	20032	0.082989439728	25
0	21871	0.086968742878	26
0	22218	0.087816894538	27
0	22567	0.088629046198	28
0	22917	0.089360197858	29
0	23266	0.090190349518	30
0	25292	0.116660810828	31
0	25634	0.117391962488	32
0	25976	0.118159132069	33
0	27005	0.120496690656	34
0	28038	0.122717310941	35
0	28714	0.124224765013	36
0	29228	0.125406934594	37
0	29579	0.126255086254	38
0	30105	0.127392237914	39
0	30454	0.128150389574	40
0	31953	0.152456357178	41
0	32638	0.155581986022	42
0	33328	0.158020919799	43
0	34357	0.160309812519	44
0	34532	0.160652812519	45
0	34707	0.161040812519	46
0	35395	0.16251228156	47
0	36600	0.165084879103	48
0	37466	0.166989279065	49
0	37812	0.167810430725	50
0	38963	0.19169421183	51
0	39648	0.193291578201	52
0	40333	0.195726857321	53
0	40847	0.196900273156	54
0	41880	0.200091309479	55
0	42055	0.200515309479	56
0	42917	0.202446754335	57
0	43962	0.205077396331	58
0	44141	0.205501396331	59
0	44842	0.206963710529	60
0	45973	0.233742047563	61
0	46658	0.235455909219	62
0	47343	0.237080191703	63
0	48205	0.239038624933	64
0	48380	0.239372624933	65
0	48722	0.240166893347	66
0	50089	0.243235551107	67
0	50785	0.244761020148	68
0	51135	0.245600171808	69
0	52200	0.249311291712	70
0	52983	0.271632497509	71
0	53668	0.274276359417	72
0	54353	0.276936288513	73
0	55043	0.278635913969	74
0	55733	0.280143312926	75
0	56249	0.281217728761	76
0	56948	0.282671067474	77
0	57979	0.284936597216	78
0	58157	0.285315597216	79
0	59207	0.289055186156	80
0	59993	0.308214791183	81
0	60678	0.31316711623	82
0	61363	0.317302348049	83
0	62069	0.32079659033	84
0	62583	0.321852911571	85
0	63452	0.323757579637	86
0	64136	0.325255900429	87
0	64311	0.325715900429	88
0	65521	0.328279730032	89
0	66035	0.329443881692	90
0	67003	0.352759618397	91
0	67517	0.35397275971	92
0	68373	0.356616915229	93
0	69058	0.358277337265	94
0	69743	0.360045701829	95
0	70428	0.361881363383	96
0	71129	0.363712703309	97
0	71830	0.365246977039	98
0	72555	0.370274386997	99
0	73256	0.372051850852	100
0	74018	0.392181063643	101
0	74360	0.393002290887	102
0	75388	0.395510982995	103
0	75730	0.396242152127	104
0	76415	0.39767746807	105
0	77794	0.402596754212	106
0	77971	0.402993754212	107
0	78151	0.403417754212	108
0	79581	0.412008737163	109
0	80286	0.413972009652	110
0	81028	0.431616655891	111
0	81708	0.433141976933	112
0	82393	0.434721324918	113
0	83078	0.436547160578	114
0	83763	0.438270609539	115
0	84448	0.439976019267	116
0	85144	0.441555390608	117
0	85667	0.442773780105	118
0	86623	0.453451364726	119
0	87316	0.456787948406	120
0	88033	0.471939513178	121
0	88718	0.474017631165	122
0	89408	0.476585851289	123
0	89922	0.47786729887	124
0	90779	0.479708800319	125
0	91121	0.480520951979	126
0	91463	0.481270103639	127
0	92859	0.484924198196	128
0	93594	0.490749204436	129
0	94326	0.500135130746	130
0	95215	0.515220282716	131
0	95562	0.515951434376	132
0	96423	0.51782874199	133
0	97280	0.519589261117	134
0	97956	0.521105628671	135
0	98469	0.522224924592	136
0	98811	0.522974076252	137
0	99880	0.528192639642	138
0	100583	0.529781117859	139
0	101320	0.535890998461	140
0	102053	0.551919925637	141
0	102738	0.55504423215	142
0	103423	0.556803580135	143
0	104108	0.559008903886	144
0	104793	0.560471197082	145
0	105494	0.563121018746	146
0	106183	0.564835358672	147
0	106892	0.567470670512	148
0	107589	0.569158148729	149
0	108358	0.579743935008	150
0	109048	0.58923094269	151
0	109920	0.597747061495	152
0	110095	0.598090061495	153
0	111134	0.600526360223	154
0	111991	0.602394864355	155
0	112338	0.603243016015	156
0	113018	0.604822382386	157
0	113880	0.607329879525	158
0	114583	0.608909357742	159
0	115367	0.619317525101	160
0	116073	0.631341611391	161
0	116758	0.638504207624	162
0	117620	0.640580373724	163
0	117797	0.640923373724	164
0	118317	0.642087752628	165
0	119687	0.645003605481	166
0	120205	0.646122757141	167
0	120380	0.646456757141	168
0	121406	0.648812266842	169
0	122350	0.657030922106	170
0	123255	0.675391453593	171
0	123430	0.675860453593	172
0	124453	0.678743012715	173
0	125310	0.682998145609	174
0	125652	0.683783297269	175
0	126356	0.685290705752	176
0	127305	0.687568359636	177
0	128164	0.689382739622	178
0	128343	0.689716739622	179
0	129428	0.698159589671	180
0	130164	0.718046817811	181
0	130849	0.719734156649	182
0	131706	0.721944655822	183
0	132048	0.722765807482	184
0	132733	0.724282255063	185
0	133589	0.726150621434	186
0	134283	0.72777499332	187
0	134804	0.728948401803	188
0	135677	0.731050763549	189
0	136409	0.735666041844	190
0	137174	0.755620387195	191
0	137859	0.757172740665	192
0	138716	0.763039273788	193
0	138896	0.763454273788	194
0	139415	0.764519624435	195
0	139930	0.765575776095	196
0	141146	0.768416850597	197
0	141321	0.768777850597	198
0	142686	0.772044498634	199
0	143387	0.773650869572	200
0	144184	0.79077895179	201
0	144869	0.796601336781	202
0	145554	0.798642729094	203
0	146260	0.802663433389	204
0	146769	0.803809822886	205
0	147636	0.806530971477	206
0	148326	0.808119270205	207
0	149032	0.809707545665	208
0	149541	0.810826924569	209
0	150416	0.81382761325	210
0	151194	0.830109726308	211
0	151879	0.833453872969	212
0	152564	0.836243726141	213
0	153265	0.842169325782	214
0	153966	0.845003971176	215
0	154667	0.847736794644	216
0	155352	0.850030165878	217
0	156038	0.851591567711	218
0	156738	0.853170850195	219
0	157446	0.857772280636	220
0	158204	0.872449207451	221
0	158894	0.876057382659	222
0	159403	0.8771588517	223
0	160275	0.883761124103	224
0	160960	0.885356941805	225
0	162013	0.887712826198	226
0	162192	0.888055826198	227
0	162705	0.889147977858	228
0	163732	0.891557360855	229
0	164496	0.900879345173	230
0	165214	0.914377439251	231
0	165904	0.91723109401	232
0	166413	0.918386563051	233
0	167269	0.92182212825	234
0	168321	0.927267702148	235
0	168501	0.927664702148	236
0	168849	0.928377853808	237
0	170058	0.931202372395	238
0	170756	0.932754671123	239
0	171503	0.941652920659	240
0	172401	0.95751377425	241
0	172743	0.958254091631	242
0	173085	0.958967243291	243
0	174284	0.962650044368	244
0	174636	0.963453301191	245
0	175821	0.966061677499	246
0	175996	0.966503677499	247
0	177047	0.969030244669	248
0	177766	0.97340646042	249
0	178508	0.979057752146	250
0	179234	0.992844234663	251
0	179919	1.000571287697	252
0	180609	1.002249608739	253
0	181129	1.00337807778	254
0	181990	1.005372416618	255
0	182680	1.008069616521	256
0	183361	1.009622153086	257
0	183712	1.010470153086	258
0	184766	1.013616585828	259
0	185468	1.015258956766	260
0	186244	1.027841876818	261
0	186930	1.037403263677	262
0	187630	1.040372542451	263
0	188315	1.043360933254	264
0	189172	1.045436409752	265
0	189347	1.045815409752	266
0	190387	1.049840829596	267
0	191087	1.051447212593	268
0	191787	1.054256644824	269
0	192505	1.057562772181	270
0	193242	1.067291618212	271
0	193955	1.079208884838	272
0	194645	1.081438577901	273
0	194987	1.082241846315	274
0	196010	1.085327393296	275
0	196695	1.08696963878	276
0	197388	1.089333686369	277
0	198113	1.093298903195	278
0	198801	1.094923185679	279
0	199523	1.099578777566	280
0	200228	1.103849555313	281
0	200965	1.11701493135	282
0	201650	1.118702264845	283
0	202335	1.123486376813	284
0	203020	1.125227759487	285
0	203722	1.127661282117	286
0	204072	1.128473578038	287
0	205107	1.130891961035	288
0	205824	1.136136442469	289
0	206729	1.143099618131	290
0	207071	1.143884769791	291
0	207975	1.159779710003	292
0	208660	1.161359033251	293
0	209517	1.163956869452	294
0	209697	1.164371869452	295
0	210715	1.16680816818	296
0	211412	1.170386023934	297
0	212126	1.173859325017	298
0	212830	1.175697337578	299
0	213554	1.183437610428	300
0	214257	1.185596696954	301
0	214990	1.201467907398	302
0	215337	1.202226164221	303
0	216184	1.204076639129	304
0	217040	1.206594723759	305
0	217725	1.208363027554	306
0	218410	1.21005936748	307
0	219143	1.215463365715	308
0	219840	1.217222696409	309
0	220545	1.219362570446	310
0	221246	1.223531208576	311
0	221995	1.238511955032	312
0	222680	1.24213995317	313
0	223365	1.243602308415	314
0	224050	1.245359365933	315
0	224751	1.251487911371	316
0	225453	1.253157156855	317
0	226169	1.257184449322	318
0	227031	1.260410155749	319
0	227206	1.260816155749	320
0	227896	1.262287534653	321
0	229005	1.274261455958	322
0	229690	1.277683167845	323
0	230391	1.285965812619	324
0	231082	1.287608195293	325
0	231777	1.289223572884	326
0	232467	1.295835075572	327
0	233519	1.298271671158	328
0	233869	1.299065822818	329
0	234219	1.299778974478	330
0	235250	1.302678184357	331
0	236015	1.317957757137	332
0	236700	1.320032678113	333
0	237385	1.322583813624	334
0	238102	1.331315599571	335
0	238973	1.333364094624	336
0	239317	1.334194246284	337
0	240178	1.336107567352	338
0	240858	1.337740853514	339
0	241543	1.340675640143	340
0	242288	1.346682693854	341
0	243009	1.354131205312	342
0	243696	1.356280534124	343
0	244395	1.358852870436	344
0	245112	1.367280145729	345
0	245813	1.37177379196	346
0	246503	1.373353163846	347
0	247012	1.374508611427	348
0	247880	1.377823991941	349
0	248569	1.379709362879	350
0	249283	1.383989974028	351
0	250028	1.394383243332	352
0	250720	1.395980576827	353
0	251410	1.40224350015	354
0	252090	1.40375973218	355
0	252807	1.408732586799	356
0	253492	1.410437969796	357
0	254200	1.413807265063	358
0	254923	1.421173755447	359
0	255611	1.422807126788	360
0	256310	1.424566404024	361
0	257010	1.43190891383	362
0	257730	1.437923870602	363
0	258415	1.440806642159	364
0	259112	1.442566024833	365
0	259801	1.444929292613	366
0	260536	1.453224907196	367
0	260881	1.454055145033	368
0	261932	1.46326835524	369
0	262454	1.464486771075	370
0	263151	1.466111048311	371
0	264038	1.475681427038	372
0	264750	1.480063465615	373
0	265426	1.481570988217	374
0	265768	1.482401139877	375
0	266811	1.488759486356	376
0	267506	1.490401869353	377
0	268209	1.492206241239	378
0	268938	1.500620431229	379
0	269643	1.502873771524	380
0	270332	1.504354142865	381
0	271065	1.51553690473	382
0	271750	1.518020369986	383
0	272435	1.523979717774	384
0	273304	1.526055368545	385
0	273650	1.526885520205	386
0	274347	1.528509909702	387
0	275220	1.534782330742	388
0	275948	1.53910696605	389
0	276641	1.54300305783	390
0	276988	1.543815227411	391
0	278080	1.557975326909	392
0	278589	1.559166735392	393
0	279445	1.56142449195	394
0	280130	1.564891141943	395
0	280644	1.566095565546	396
0	281509	1.568198022226	397
0	282286	1.579451211445	398
0	283138	1.581409676312	399
0	283313	1.581752676312	400
0	284336	1.584099047653	401
0	285257	1.598514988033	402
0	285432	1.598920988033	403
0	286460	1.602687013596	404
0	287140	1.604176329539	405
0	287825	1.606547139021	406
0	288518	1.608369587982	407
0	289275	1.617608564148	408
0	289976	1.623735558237	409
0	290666	1.625368833697	410
0	291175	1.626569154938	411
0	292072	1.635713942218	412
0	292785	1.641271054716	413
0	293465	1.642976286746	414
0	294154	1.645298879208	415
0	294851	1.646980620939	416
0	295556	1.652661289679	417
0	296257	1.654915802587	418
0	297152	1.663038523827	419
0	297500	1.663814675487	420
0	298372	1.669024063763	421
0	299089	1.676298654689	422
0	299774	1.678252207331	423
0	300474	1.679993439361	424
0	301341	1.68657163565	425
0	301521	1.68705863565	426
0	302566	1.68968025815	427
0	303306	1.699654735873	428
0	303996	1.701207018357	429
0	304681	1.704030805598	430
0	305366	1.708055983557	431
0	306099	1.716044828341	432
0	306800	1.719086682769	433
0	307485	1.720738038014	434
0	308194	1.729148858668	435
0	309069	1.73118827574	436
0	309247	1.73152227574	437
0	310298	1.740455921695	438
0	310992	1.741936252389	439
0	311691	1.746114127474	440
0	312406	1.75273339324	441
0	313094	1.755603143909	442
0	313794	1.758534750927	443
0	314495	1.765044769859	444
0	315196	1.767691587472	445
0	315895	1.769378927398	446
0	316582	1.774298025722	447
0	317287	1.777419530727	448
0	318002	1.783854223577	449
0	318705	1.78710301919	450
0	319596	1.797092265671	451
0	319944	1.797940417331	452
0	320804	1.799763728448	453
0	321489	1.801487083693	454
0	322174	1.804935018487	455
0	322894	1.809427101347	456
0	323629	1.818403374942	457
0	324146	1.819558795016	458
0	325010	1.826962198129	459
0	325727	1.830774679757	460
0	326412	1.832855096169	461
0	327113	1.83923225969	462
0	327806	1.840964580732	463
0	328515	1.844517996914	464
0	329200	1.847578027277	465
0	329896	1.849676818814	466
0	330618	1.856659801482	467
0	331335	1.862696546415	468
0	332020	1.864293828899	469
0	332713	1.866798161537	470
0	333426	1.874127235213	471
0	334139	1.880985424897	472
0	334829	1.882546780142	473
0	335516	1.884180101184	474
0	336218	1.891131367127	475
0	336744	1.892313756624	476
0	337628	1.899285727808	477
0	338317	1.900919010292	478
0	339026	1.903274440141	479
0	339726	1.909740536281	480
0	340448	1.916640699518	481
0	341134	1.919091489707	482
0	341834	1.924073225727	483
0	342519	1.925668733601	484
0	343236	1.932429222843	485
0	343940	1.935325615896	486
0	344810	1.937239069968	487
0	345152	1.938087221628	488
0	346046	1.94676893598	489
0	346570	1.947942351815	490
0	347442	1.954451807964	491
0	348127	1.955959119059	492
0	348844	1.95954242382	493
0	349557	1.96642569549	494
0	350262	1.971870117302	495
0	350947	1.973602457228	496
0	351644	1.976890118991	497
0	352333	1.981039203375	498
0	353066	1.98778957399	499
0	353759	1.991216211826	500
0	354624	1.993156565926	501
0	354966	1.993896717586	502
0	355822	1.996182389278	503
0	356587	2.009263309929	504
0	357272	2.013401047912	505
0	357962	2.014944387838	506
0	358471	2.016153807912	507
0	359337	2.019692961917	508
0	360076	2.028422477269	509
0	360770	2.030055750999	510
0	361462	2.032753794604	511
0	362147	2.035907329527	512
0	362851	2.039672235161	513
0	363597	2.051769389986	514
0	364282	2.053222848651	515
0	364972	2.055247475178	516
0	365481	2.056447864675	517
0	366354	2.062798583522	518
0	367082	2.067408173037	519
0	367771	2.070569079926	520
0	368456	2.07211244449	521
0	369157	2.075740478717	522
0	369858	2.078893823981	523
0	370591	2.086681257125	524
0	371292	2.090405137586	525
0	371977	2.093174896443	526
0	372662	2.094857754527	527
0	373416	2.10762817998	528
0	373758	2.108368349561	529
0	374953	2.111048795158	530
0	375128	2.111472795158	531
0	376183	2.119934345591	532
0	376897	2.122987352341	533
0	377594	2.130297543462	534
0	378301	2.133318520634	535
0	378821	2.134500989675	536
0	379672	2.136315344883	537
0	380413	2.146595642988	538
0	381116	2.149910672077	539
0	381963	2.151887089063	540
0	382138	2.152293089063	541
0	383173	2.157205816562	542
0	383906	2.1636227597	543
0	384611	2.169969224082	544
0	385312	2.17486582295	545
0	385997	2.178116490831	546
0	386686	2.179632857326	547
0	387411	2.188616420374	548
0	388112	2.190348791715	549
0	388811	2.19445986977	550
0	389561	2.196439332348	551
0	390070	2.197621711252	552
0	390958	2.202286003421	553
0	391696	2.211983761892	554
0	392393	2.215720278656	555
0	393078	2.217452618582	556
0	393777	2.222894183953	557
0	394496	2.22984105653	558
0	395181	2.231807690075	559
0	395882	2.234090839343	560
0	396739	2.236238343407	561
0	397081	2.237032495067	562
0	397976	2.244091269218	563
0	398713	2.25408919619	564
0	399403	2.255524494918	565
0	400088	2.256995834844	566
0	400773	2.260324592127	567
0	401506	2.268657588781	568
0	402207	2.272728626877	569
0	403064	2.274849185073	570
0	403239	2.275183185073	571
0	404262	2.277709776881	572
0	404963	2.279782652465	573
0	405728	2.292796516913	574
0	406413	2.297119941231	575
0	407098	2.300715224133	576
0	407799	2.30408241103	577
0	408500	2.308255204058	578
0	409201	2.312049687198	579
0	409903	2.314746455539	580
0	410592	2.316415687569	581
0	411102	2.317616096052	582
0	411987	2.322680579781	583
0	412737	2.333451951891	584
0	413423	2.337778537911	585
0	414108	2.339591893119	586
0	414793	2.341378588432	587
0	415526	2.350645416836	588
0	416571	2.352992003969	589
0	416746	2.353335003969	590
0	416921	2.353714003969	591
0	418111	2.356475607694	592
0	419015	2.364672731458	593
0	419736	2.374436052148	594
0	420433	2.378101750998	595
0	421118	2.380461006574	596
0	421803	2.382346383677	597
0	422520	2.389738369957	598
0	423221	2.391614265795	599
0	423922	2.394493551865	600
0	424779	2.39653423729	601
0	424954	2.39686823729	602
0	426005	2.402278896615	603
0	426763	2.418167259661	604
0	427443	2.419611626156	605
0	428128	2.422613848939	606
0	428818	2.42535697194	607
0	429160	2.426106141072	608
0	430212	2.430481340021	609
0	430900	2.431979613751	610
0	431601	2.43461852897	611
0	432318	2.438149290897	612
0	433051	2.446682760201	613
0	433752	2.455046969794	614
0	434453	2.460055470248	615
0	435315	2.462076972524	616
0	435657	2.462835141656	617
0	436166	2.463990293316	618
0	437209	2.468378816089	619
0	437918	2.47193226367	620
0	438640	2.475034312881	621
0	439328	2.476586684222	622
0	440073	2.487330718359	623
0	440773	2.497829588181	624
0	441463	2.501081445472	625
0	441815	2.501893683309	626
0	442667	2.503735153625	627
0	443009	2.504565305285	628
0	444237	2.512217070549	629
0	445289	2.514437750815	630
0	445468	2.514807750815	631
0	445646	2.515141750815	632
0	447063	2.525309858527	633
0	447788	2.537563543591	634
0	448473	2.539169847386	635
0	449158	2.54140260939	636
0	449843	2.542927986493	637
0	450528	2.547020943024	638
0	451247	2.550944691246	639
0	451948	2.552497022783	640
0	452652	2.556059465814	641
0	453169	2.557250874297	642
0	454065	2.565345301857	643
0	454790	2.575574648243	644
0	455483	2.577081971491	645
0	456168	2.58195265618	646
0	456853	2.58355000965	647
0	457560	2.587052336555	648
0	458279	2.593656729829	649
0	458972	2.595218061366	650
0	459673	2.598061698828	651
0	460358	2.599846670482	652
0	461043	2.603046716929	653
0	461792	2.611181426712	654
0	462493	2.61879687653	655
0	463179	2.620691396995	656
0	463879	2.624055174138	657
0	464571	2.628797074175	658
0	465269	2.630493457172	659
0	465970	2.633721443597	660
0	466694	2.640911178663	661
0	467389	2.642733600699	662
0	467906	2.643987925077	663
0	468770	2.64645047987	664
0	469519	2.66291211024	665
0	470214	2.665123110905	666
0	470890	2.666549760296	667
0	471403	2.667857911956	668
0	472259	2.670235615269	669
0	472960	2.674288752748	670
0	473886	2.682396572678	671
0	474228	2.683145724338	672
0	475095	2.685220999798	673
0	475442	2.68599716893	674
0	476529	2.698837072707	675
0	477214	2.701335604169	676
0	478071	2.707110239667	677
0	478413	2.707949391327	678
0	479301	2.7137145196	679
0	479986	2.715518851137	680
0	480691	2.718079375201	681
0	481394	2.723205650602	682
0	482089	2.724883882632	683
0	482790	2.726863061296	684
0	483535	2.736877353457	685
0	484053	2.738014742954	686
0	484914	2.746781594079	687
0	485626	2.75066630548	688
0	486483	2.753962441138	689
0	486658	2.754440441138	690
0	487697	2.75832816932	691
0	488382	2.759799591356	692
0	489088	2.763427137674	693
0	489796	2.765797511558	694
0	490530	2.774052815339	695
0	491234	2.777321918701	696
0	491935	2.785425551021	697
0	492808	2.793663321478	698
0	492983	2.794006321478	699
0	494027	2.796487903561	700
0	494707	2.797950234255	701
0	495392	2.799619657949	702
0	496077	2.801316059782	703
0	496772	2.80365667273	704
0	497543	2.812521147662	705
0	498244	2.819727026937	706
0	498945	2.82416128631	707
0	499818	2.832305819926	708
0	500165	2.833127619974	709
0	500511	2.833822771634	710
0	501546	2.836205234411	711
0	502231	2.837793577928	712
0	503087	2.839760955519	713
0	503812	2.845226310456	714
0	504554	2.854598028037	715
0	505258	2.864256022766	716
0	505955	2.865790389261	717
0	506640	2.871234411296	718
0	507325	2.873074918073	719
0	508196	2.875006462303	720
0	508721	2.876188694333	721
0	509241	2.877343845993	722
0	510097	2.879473167035	723
0	510834	2.88592787668	724
0	511571	2.896176982982	725
0	512264	2.901933021802	726
0	512949	2.904185240297	727
0	513650	2.909277533806	728
0	514344	2.912350879895	729
0	515052	2.915567425096	730
0	515737	2.917722665763	731
0	516435	2.919446037104	732
0	517123	2.921061269134	733
0	517844	2.927285273665	734
0	518579	2.937247351024	735
0	519274	2.944546231872	736
0	519959	2.9462601557	737
0	520660	2.949764270845	738
0	521366	2.956147695367	739
0	522062	2.957569322625	740
0	522925	2.959752835502	741
0	523102	2.960095835502	742
0	524133	2.962424331707	743
0	524862	2.969895636122	744
0	525583	2.978266184518	745
0	526284	2.982758196311	746
0	526969	2.985977359886	747
0	527670	2.991734883596	748
0	528376	2.994391769497	749
0	529061	2.995845191533	750
0	529757	2.997912092786	751
0	530442	2.999725502514	752
0	531137	3.002169078475	753
0	531900	3.012364894893	754
0	532593	3.015674631969	755
0	533294	3.024991733777	756
0	533993	3.026508100272	757
0	534680	3.029998890343	758
0	535365	3.031650314037	759
0	536070	3.03631343424	760
0	536767	3.038778196635	761
0	537463	3.040384567976	762
0	538169	3.043671865715	763
0	538902	3.052845227274	764
0	539599	3.054370648067	765
0	540320	3.066847649075	766
0	541005	3.06995231364	767
0	541690	3.071756668885	768
0	542380	3.074591374218	769
0	542889	3.075683753122	770
0	543772	3.080403406624	771
0	544483	3.082935591513	772
0	545168	3.084460956077	773
0	545900	3.09271169862	774
0	546613	3.098853255582	775
0	547308	3.103146255199	776
0	547999	3.106538022394	777
0	548685	3.108342377639	778
0	549574	3.116069409856	779
0	549754	3.116529409856	780
0	550800	3.119199698401	781
0	551488	3.123222983542	782
0	552173	3.124946354883	783
0	552906	3.130927613162	784
0	553621	3.13558397816	785
0	554308	3.139416688636	786
0	555009	3.144092290948	787
0	555712	3.148925984374	788
0	556427	3.15666375582	789
0	557465	3.159145093563	790
0	557814	3.159939245223	791
0	558156	3.160760396883	792
0	559183	3.163061779368	793
0	559887	3.167954038911	794
0	560641	3.178193314464	795
0	561334	3.18159353106	796
0	562019	3.1834286311	797
0	562738	3.19293591657	798
0	563442	3.195035129744	799
0	564122	3.196767412228	800
0	564807	3.198400795225	801
0	565664	3.201609574453	802
0	565839	3.201943574453	803
0	566878	3.204397992055	804
0	567659	3.219955107849	805
0	568344	3.223064163557	806
0	569029	3.225792260932	807
0	569751	3.234359088953	808
0	570264	3.235613467857	809
0	570966	3.237200654649	810
0	571994	3.239484220331	811
0	572169	3.239854220331	812
0	572845	3.241352636166	813
0	573922	3.248626421074	814
0	574669	3.260134429826	815
0	575354	3.261868932571	816
0	576039	3.264119400515	817
0	576740	3.271101827579	818
0	577457	3.275603677861	819
0	578142	3.277193639853	820
0	578827	3.278763950948	821
0	579512	3.280523360676	822
0	580213	3.284175964724	823
0	580922	3.287281520124	824
0	581675	3.298014238708	825
0	582364	3.299647640541	826
0	583049	3.301262956484	827
0	583734	3.307147590378	828
0	584468	3.311892466755	829
0	585152	3.313543749239	830
0	585853	3.319051766808	831
0	586710	3.32100117504	832
0	587057	3.3217863267	833
0	587952	3.329471372517	834
0	588673	3.334312192183	835
0	589358	3.337195591509	836
0	590045	3.339080177209	837
0	590744	3.343119849672	838
0	591477	3.350286307855	839
0	592178	3.355087237119	840
0	593035	3.35719873678	841
0	593210	3.35760473678	842
0	594241	3.360567296192	843
0	594987	3.369589896295	844
0	595506	3.370835316369	845
0	596368	3.378125323275	846
0	597064	3.380082124133	847
0	597770	3.382541035829	848
0	598467	3.388625030381	849
0	599184	3.393122039014	850
0	599873	3.397490542592	851
0	600571	3.399433711231	852
0	601271	3.403792956631	853
0	601972	3.408152394757	854
0	602670	3.40974081555	855
0	603410	3.421544940025	856
0	604100	3.424502954476	857
0	604780	3.426046270419	858
0	605465	3.427959098479	859
0	606523	3.435098805094	860
0	606702	3.435441805094	861
0	607222	3.436605956754	862
0	608269	3.442496591393	863
0	609007	3.449081848994	864
0	609349	3.449822117408	865
0	610392	3.458935023766	866
0	610920	3.460189413263	867
0	611790	3.465484190673	868
0	612667	3.47036204039	869
0	613022	3.47111119205	870
0	613877	3.47305150825	871
0	614578	3.476942887892	872
0	615311	3.485531901501	873
0	616007	3.487309272439	874
0	616697	3.492380903835	875
0	617397	3.496502662554	876
0	618097	3.497947029049	877
0	618784	3.501203787213	878
0	619509	3.508232495703	879
0	620218	3.512904953708	880
0	620903	3.514430336705	881
0	621604	3.521308741997	882
0	622321	3.528153361737	883
0	623178	3.530066941438	884
0	623521	3.530825093098	885
0	624392	3.535465988292	886
0	625077	3.537162354787	887
0	625810	3.54337407322	888
0	626532	3.548536632498	889
0	626874	3.549249928419	890
0	627726	3.551010428064	891
0	628646	3.563255280407	892
0	629331	3.56587025451	893
0	630016	3.567476710411	894
0	630701	3.571808852459	895
0	631410	3.576110374802	896
0	632119	3.579747622319	897
0	632820	3.585351648983	898
0	633520	3.586993942179	899
0	634214	3.589831434327	900
0	634907	3.591784314838	901
0	635654	3.60216570328	902
0	636170	3.603402119115	903
0	637026	3.608170928248	904
0	637711	3.611337357421	905
0	638600	3.616240808592	906
0	638942	3.616980960252	907
0	639838	3.626074375793	908
0	640540	3.627689658277	909
0	641232	3.629721141228	910
0	641917	3.635040744779	911
0	642625	3.637719541374	912
0	643347	3.645784591734	913
0	644045	3.64808907072	914
0	644737	3.650332511755	915
0	645422	3.653083723606	916
0	646107	3.655163519635	917
0	646840	3.661858761976	918
0	647557	3.666291062689	919
0	648242	3.669146770946	920
0	648943	3.672983273045	921
0	649644	3.677266651054	922
0	650357	3.683503743834	923
0	651062	3.689006194389	924
0	651747	3.690748806977	925
0	652448	3.697594668918	926
0	653146	3.69973972202	927
0	653850	3.705781954969	928
0	654545	3.707469276011	929
0	655236	3.708922674968	930
0	655937	3.711005190256	931
0	656654	3.718297997094	932
0	657355	3.719967320342	933
0	658072	3.729299440139	934
0	658778	3.733351345605	935
0	659463	3.734867591089	936
0	660143	3.736473944559	937
0	660881	3.746379776366	938
0	661577	3.749458119756	939
0	662262	3.751064430851	940
0	662947	3.753140927444	941
0	663657	3.759851596605	942
0	664371	3.763101063694	943
0	665066	3.769043183108	944
0	665768	3.772560554412	945
0	666468	3.774166912453	946
0	667153	3.777980285362	947
0	667886	3.785766806338	948
0	668759	3.789620029416	949
0	668934	3.789990029416	950
0	669957	3.792435617776	951
0	670658	3.797858543095	952
0	671391	3.803527318877	953
0	672092	3.809248722497	954
0	672781	3.813170180659	955
0	673135	3.813898345806	956
0	674163	3.817090749439	957
0	674905	3.826882057121	958
0	675426	3.828118465604	959
0	676454	3.830429048733	960
0	676796	3.831142200393	961
0	677652	3.835733673224	962
0	678392	3.841532845314	963
0	679102	3.847352581006	964
0	679801	3.852379308757	965
0	680488	3.855871995615	966
0	681181	3.85755936211	967
0	681888	3.863119683298	968
0	682575	3.86464500434	969
0	683288	3.868241458473	970
0	683977	3.87030349917	971
0	684690	3.875182790246	972
0	685379	3.87767219881	973
0	686128	3.888742736433	974
0	686475	3.889482909151	975
0	687498	3.895627529754	976
0	688183	3.897769899788	977
0	688900	3.903373751288	978
0	689585	3.905007224206	979
0	690361	3.907154555743	980
0	691057	3.908778848939	981
0	691765	3.91454990179	982
0	692115	3.915326170204	983
0	693186	3.924844681843	984
0	693895	3.928911731776	985
0	694580	3.93085567482	986
0	695270	3.934766286405	987
0	695988	3.940831405134	988
0	696683	3.942356716229	989
0	697384	3.946900758926	990
0	698078	3.950591169766	991
0	698950	3.952480254796	992
0	699300	3.953310406456	993
0	700188	3.961378072345	994
0	700905	3.966259958802	995
0	701590	3.969507365663	996
0	702307	3.977779473842	997
0	703008	3.981931809825	998
0	703355	3.982707978957	999
0	704558	3.987854947789	1000
0	704742	3.988215947789	1001
0	705764	3.990544271037	1002
0	706481	3.99447727274	1003
0	707174	3.997686280161	1004
0	707912	4.005290367722	1005
0	708615	4.008504072497	1006
0	709317	4.016974291347	1007
0	709664	4.01772680507	1008
0	710703	4.021764091845	1009
0	711393	4.024832635916	1010
0	712074	4.026429929112	1011
0	712806	4.033237576315	1012
0	713497	4.034825858799	1013
0	714380	4.042044207018	1014
0	714724	4.042802358678	1015
0	715610	4.050717716252	1016
0	716314	4.052808949861	1017
0	717012	4.055168222713	1018
0	717722	4.063122761751	1019
0	718600	4.065959920934	1020
0	718944	4.066709072594	1021
0	719800	4.069230593281	1022
0	720485	4.072275858373	1023
0	721410	4.082103588777	1024
0	721759	4.082807740437	1025
0	722620	4.088704297282	1026
0	723337	4.097109040624	1027
0	724032	4.099029329738	1028
0	724723	4.103471640351	1029
0	725237	4.104717087932	1030
0	726097	4.106884861373	1031
0	726796	4.108509184621	1032
0	727495	4.112308332273	1033
0	728238	4.119020802574	1034
0	728945	4.123858089869	1035
0	729630	4.125573507065	1036
0	730363	4.13736440262	1037
0	731048	4.13892563465	1038
0	731733	4.142796955874	1039
0	732418	4.145580475884	1040
0	733127	4.149097624641	1041
0	733820	4.150695048335	1042
0	734334	4.151931468409	1043
0	735206	4.154233643689	1044
0	735943	4.162146931533	1045
0	736656	4.166721127249	1046
0	737373	4.178042554339	1047
0	738230	4.179964908439	1048
0	738572	4.180687060099	1049
0	739428	4.185180924889	1050
0	740125	4.188695910075	1051
0	741013	4.191535821054	1052
0	741360	4.192365972714	1053
0	742216	4.19433353634	1054
0	742933	4.200017846854	1055
0	743666	4.205309086816	1056
0	744383	4.22146059369	1057
0	745073	4.223003897485	1058
0	745587	4.224231218726	1059
0	746105	4.225413475549	1060
0	746952	4.227300036937	1061
0	747814	4.231399876788	1062
0	748533	4.23465658286	1063
0	749242	4.237019730883	1064
0	749596	4.237740404142	1065
0	750692	4.249704552512	1066
0	751391	4.260529255396	1067
0	752078	4.262652581449	1068
0	752768	4.266902864684	1069
0	753448	4.268644096714	1070
0	754141	4.27066514396	1071
0	754850	4.274657499387	1072
0	755535	4.276362955288	1073
0	756412	4.27848345705	1074
0	756761	4.27918760871	1075
0	757697	4.290008156618	1076
0	758408	4.301472310936	1077
0	758755	4.302230480517	1078
0	759774	4.304523005743	1079
0	760287	4.305831157403	1080
0	761155	4.311921191973	1081
0	762035	4.314104771758	1082
0	762385	4.314943923418	1083
0	763261	4.316992254112	1084
0	763948	4.321444807039	1085
0	764682	4.326452368035	1086
0	765418	4.338185209008	1087
0	766099	4.339728671336	1088
0	766441	4.340567822996	1089
0	767468	4.34292315686	1090
0	768191	4.351273688212	1091
0	768907	4.356312539354	1092
0	769588	4.357838042058	1093
0	769934	4.358650042058	1094
0	770786	4.360536524412	1095
0	771710	4.370715769576	1096
0	772407	4.37696811847	1097
0	773276	4.381295885285	1098
0	773455	4.381710885285	1099
0	774307	4.383723403316	1100
0	775211	4.392949888905	1101
0	775911	4.394547171389	1102
0	776426	4.395711587224	1103
0	777282	4.398382900344	1104
0	777967	4.400504785482	1105
0	778732	4.412538072698	1106
0	779417	4.41707503833	1107
0	780118	4.423668943451	1108
0	780808	4.425455247246	1109
0	781150	4.426186416827	1110
0	782189	4.428644265415	1111
0	782906	4.436394260374	1112
0	783626	4.439493850004	1113
0	784480	4.441578272532	1114
0	784655	4.441975272532	1115
0	785705	4.449982137895	1116
0	786427	4.45898913348	1117
0	787128	4.463972776418	1118
0	787813	4.465543050148	1119
0	788498	4.467900604559	1120
0	789193	4.469425976445	1121
0	789906	4.475470200622	1122
0	790601	4.477202621415	1123
0	791302	4.478772907577	1124
0	792003	4.481925164572	1125
0	792732	4.489275091666	1126
0	793449	4.499966574498	1127
0	794138	4.503141876843	1128
0	795005	4.509875344156	1129
0	795525	4.511048733653	1130
0	795867	4.511878885313	1131
0	796910	4.515083684092	1132
0	797601	4.519466707062	1133
0	798319	4.522679840794	1134
0	799013	4.524214184311	1135
0	799718	4.529251159978	1136
0	800463	4.542026160494	1137
0	801148	4.544695966161	1138
0	801838	4.546113297698	1139
0	802180	4.546934554521	1140
0	803219	4.553676383812	1141
0	803924	4.555902766513	1142
0	804637	4.55933697934	1143
0	805322	4.562713914187	1144
0	806211	4.567614709735	1145
0	806553	4.568462861395	1146
0	807465	4.579019946262	1147
0	808158	4.581154101156	1148
0	808843	4.582787374886	1149
0	809528	4.585001530042	1150
0	810449	4.596795796112	1151
0	811135	4.598312206074	1152
0	811648	4.599512474488	1153
0	811823	4.599846474488	1154
0	813058	4.609736186376	1155
0	813762	4.611669568529	1156
0	814451	4.614724790069	1157
0	815136	4.61848583233	1158
0	816041	4.625918686937	1159
0	816383	4.626757838597	1160
0	817255	4.631595440854	1161
0	817940	4.634449227392	1162
0	818651	4.637477162893	1163
0	819344	4.641202859702	1164
0	820059	4.646727897842	1165
0	820760	4.64911980524	1166
0	821461	4.655537661501	1167
0	822162	4.658067965428	1168
0	822863	4.663237875222	1169
0	823569	4.666556263922	1170
0	824256	4.66811758717	1171
0	824961	4.67372886824	1172
0	825688	4.681049768031	1173
0	826197	4.682196157528	1174
0	827069	4.684109518512	1175
0	827583	4.685273987553	1176
0	828483	4.694708273976	1177
0	829188	4.696759176901	1178
0	829873	4.702581760757	1179
0	830566	4.704912713682	1180
0	831263	4.706457813016	1181
0	832008	4.71730613083	1182
0	832865	4.719183633727	1183
0	833040	4.719598633727	1184
0	834063	4.721855308161	1185
0	834748	4.723371661631	1186
0	835513	4.736047775751	1187
0	836203	4.740876783275	1188
0	836722	4.741906162179	1189
0	837305	4.743416684944	1190
0	837981	4.745023105018	1191
0	839059	4.75375726105	1192
0	839780	4.759294982925	1193
0	840460	4.760856281653	1194
0	841145	4.762507567815	1195
0	841840	4.76417153437	1196
0	842600	4.780328861956	1197
0	843290	4.781836093986	1198
0	843966	4.783307674057	1199
0	844146	4.783722674057	1200
0	845164	4.785988230836	1201
0	846089	4.79620988328	1202
0	846785	4.797951251675	1203
0	847470	4.799764661934	1204
0	848155	4.804515739729	1205
0	848846	4.806167217946	1206
0	849954	4.819813282901	1207
0	850463	4.820995556631	1208
0	850810	4.821744708291	1209
0	851156	4.822529708291	1210
0	852345	4.825245940321	1211
0	853102	4.835316091911	1212
0	853967	4.837310607374	1213
0	854142	4.837770607374	1214
0	855165	4.840823317936	1215
0	855850	4.842663796153	1216
0	856615	4.85985158755	1217
0	857134	4.861057765866	1218
0	857652	4.862086935447	1219
0	858842	4.864704428377	1220
0	859017	4.865155428377	1221
0	860282	4.875956095329	1222
0	860460	4.876290095329	1223
0	861490	4.880328506083	1224
0	862175	4.88432276796	1225
0	862880	4.886849716899	1226
0	863609	4.895508339976	1227
0	864310	4.898005619264	1228
0	864657	4.898736788845	1229
0	865680	4.901218206447	1230
0	866194	4.902382527239	1231
0	867126	4.913299051272	1232
0	867815	4.917018001819	1233
0	868500	4.918838004174	1234
0	869194	4.923564869012	1235
0	869890	4.926838957627	1236
0	870603	4.930798288701	1237
0	871320	4.938637490441	1238
0	872357	4.940939092885	1239
0	872536	4.941327092885	1240
0	873049	4.942446244545	1241
0	874114	4.951632593808	1242
0	874825	4.955351053086	1243
0	875510	4.958474419015	1244
0	876232	4.967390380535	1245
0	877100	4.969411989576	1246
0	877442	4.970251141236	1247
0	878298	4.974959150381	1248
0	878983	4.976673489219	1249
0	879692	4.979111433676	1250
0	880401	4.983603272431	1251
0	881134	4.990117214681	1252
0	881835	4.994907090154	1253
0	882520	4.996540500413	1254
0	883221	5.003929295231	1255
0	883921	5.005751773448	1256
0	884623	5.011978148823	1257
0	885312	5.013791599934	1258
0	886197	5.016667513204	1259
0	886372	5.017037513204	1260
0	887452	5.028188550648	1261
0	888144	5.029812827884	1262
0	888829	5.03486914597	1263
0	889522	5.038322676571	1264
0	890228	5.040657818106	1265
0	890916	5.04269096933	1266
0	891629	5.048892487346	1267
0	892522	5.053636031779	1268
0	893036	5.054755355027	1269
0	893549	5.055802524159	1270
0	894469	5.068096984944	1271
0	895159	5.074195611451	1272
0	895844	5.07575702171	1273
0	896524	5.077192267194	1274
0	897222	5.078805059474	1275
0	898090	5.084351870425	1276
0	898269	5.084712870425	1277
0	899340	5.08954722944	1278
0	900029	5.093032527388	1279
0	900746	5.09669595914	1280
0	901472	5.107093767362	1281
0	902164	5.111007425177	1282
0	902853	5.116956000466	1283
0	903555	5.118607368861	1284
0	903897	5.119302686242	1285
0	904936	5.121964571875	1286
0	905621	5.124380677407	1287
0	906311	5.126849357865	1288
0	907071	5.135369273255	1289
0	907772	5.140748473404	1290
0	908457	5.144194740017	1291
0	909163	5.150633734495	1292
0	909859	5.153168164204	1293
0	910559	5.154657409688	1294
0	911245	5.156281763158	1295
0	911937	5.160659913881	1296
0	912635	5.162760558357	1297
0	913379	5.171559131917	1298
0	914081	5.175618868446	1299
0	914782	5.183104343074	1300
0	915483	5.188987186047	1301
0	916168	5.19075242868	1302
0	916869	5.193968282698	1303
0	917383	5.195051672195	1304
0	918240	5.198453514412	1305
0	918944	5.200586523398	1306
0	919641	5.202782123403	1307
0	920394	5.212544754729	1308
0	921091	5.21499400529	1309
0	921789	5.223322682413	1310
0	922493	5.227056324561	1311
0	923178	5.230317815747	1312
0	923863	5.232005226006	1313
0	924564	5.234311599966	1314
0	925265	5.23944282298	1315
0	925970	5.241659804848	1316
0	926667	5.243790406934	1317
0	927416	5.254821815235	1318
0	928101	5.256437154073	1319
0	928790	5.264550625901	1320
0	929500	5.267116385441	1321
0	930188	5.2694588488	1322
0	930873	5.271110259059	1323
0	931590	5.278318939775	1324
0	932290	5.279970222259	1325
0	932992	5.281495467743	1326
0	933677	5.283038753905	1327
0	934425	5.293911507476	1328
0	935111	5.300631253416	1329
0	935989	5.308660413677	1330
0	936336	5.309409565337	1331
0	937024	5.310835860125	1332
0	937541	5.312018011785	1333
0	938568	5.314460205069	1334
0	939257	5.317998887262	1335
0	939965	5.319668253757	1336
0	940486	5.320760669592	1337
0	941436	5.336596556853	1338
0	942121	5.342838828946	1339
0	942822	5.350326525236	1340
0	943688	5.352623898661	1341
0	944038	5.353400050321	1342
0	944894	5.35533159443	1343
0	945250	5.35606259443	1344
0	945759	5.357172973334	1345
0	946439	5.358680389169	1346
0	947649	5.36140214259	1347
0	948618	5.381077037673	1348
0	948793	5.381429037673	1349
0	949816	5.387461088641	1350
0	950538	5.394138008374	1351
0	951395	5.396015508912	1352
0	951742	5.396800736156	1353
0	952092	5.397522887816	1354
0	952785	5.399039212194	1355
0	953465	5.40055577229	1356
0	954675	5.405065481675	1357
0	955456	5.416847680178	1358
0	956141	5.418562019016	1359
0	956826	5.424402738448	1360
0	957543	5.429700559546	1361
0	958240	5.435056102013	1362
0	958929	5.437084274677	1363
0	959614	5.439050424364	1364
0	960315	5.440683834623	1365
0	961000	5.442209205561	1366
0	961717	5.448334103061	1367
0	962637	5.459154796582	1368
0	962813	5.459506796582	1369
0	963836	5.463511100854	1370
0	964521	5.465196056051	1371
0	965270	5.476442168229	1372
0	965960	5.478511890363	1373
0	966640	5.479965349028	1374
0	967325	5.483048136951	1375
0	968010	5.485507348138	1376
0	968743	5.492004602097	1377
0	969460	5.500924387283	1378
0	970337	5.502891885255	1379
0	970847	5.503957293738	1380
0	971022	5.504345293738	1381
0	972452	5.519949855676	1382
0	972799	5.520789007336	1383
0	973479	5.522440331714	1384
0	974335	5.524398741973	1385
0	975033	5.53031120789	1386
0	975762	5.534757424175	1387
0	976475	5.543490112749	1388
0	977168	5.544916386479	1389
0	978028	5.546739869162	1390
0	978203	5.547118869162	1391
0	979290	5.563152981551	1392
0	979980	5.564822465841	1393
0	980322	5.565553638559	1394
0	981345	5.568026048818	1395
0	982054	5.574991813791	1396
0	982773	5.578480697883	1397
0	983464	5.580740572574	1398
0	984165	5.586567406135	1399
0	984857	5.58802073963	1400
0	985378	5.589203060871	1401
0	986300	5.600717739659	1402
0	987157	5.602784217092	1403
0	987332	5.603145217092	1404
0	988355	5.605419675757	1405
0	989071	5.613199083428	1406
0	989774	5.614940441469	1407
0	990474	5.62111751599	1408
0	991167	5.623341899706	1409
0	991874	5.625691189479	1410
0	992561	5.627351588436	1411
0	993314	5.638152136419	1412
0	993657	5.63897343234	1413
0	994509	5.64091385946	1414
0	995365	5.643011630058	1415
0	996119	5.657986630642	1416
0	996804	5.659628995206	1417
0	997656	5.661542400125	1418
0	998170	5.662706723373	1419
0	998683	5.66384396121	1420
0	999585	5.67185138761	1421
0	1000304	5.676632351654	1422
0	1000994	5.68054674202	1423
0	1001682	5.68214401748	1424
0	1002375	5.683741481335	1425
0	1003129	5.699610832794	1426
0	1003471	5.700369070631	1427
0	1004328	5.702327513493	1428
0	1005179	5.704330799655	1429
0	1005864	5.705991255556	1430
0	1006549	5.708896219183	1431
0	1007272	5.712622272179	1432
0	1008015	5.720761166869	1433
0	1008704	5.722457630724	1434
0	1009401	5.724135913208	1435
0	1010139	5.73604240382	1436
0	1010648	5.737260793317	1437
0	1011504	5.743730780057	1438
0	1011851	5.744470949638	1439
0	1012905	5.748481051096	1440
0	1013591	5.750222384591	1441
0	1014308	5.757426847265	1442
0	1015012	5.759819071369	1443
0	1015710	5.761362353853	1444
0	1016395	5.765335660832	1445
0	1017128	5.772861354111	1446
0	1017817	5.774975384863	1447
0	1018527	5.783185938575	1448
0	1019224	5.784702231771	1449
0	1019916	5.786389565266	1450
0	1020601	5.788086021167	1451
0	1021286	5.792479875418	1452
0	1022003	5.795568761237	1453
0	1022894	5.802069878785	1454
0	1023242	5.802783030445	1455
0	1024150	5.813868779481	1456
0	1024839	5.815475024965	1457
0	1025524	5.820652801028	1458
0	1026213	5.823565550758	1459
0	1026915	5.825365591071	1460
0	1027611	5.827801205544	1461
0	1028321	5.833937716675	1462
0	1029045	5.839231236703	1463
0	1029735	5.841089720993	1464
0	1030244	5.842272045371	1465
0	1031152	5.852485026729	1466
0	1031849	5.85979941256	1467
0	1032706	5.8618691043	1468
0	1033061	5.86260025596	1469
0	1033920	5.864621634853	1470
0	1034610	5.869710243143	1471
0	1035311	5.87137058666	1472
0	1036039	5.878869014763	1473
0	1036741	5.880880327151	1474
0	1037441	5.88377629563	1475
0	1038166	5.893968094384	1476
0	1038864	5.899125003277	1477
0	1039206	5.899919241114	1478
0	1040234	5.902875082432	1479
0	1040924	5.904355375628	1480
0	1041787	5.906340944732	1481
0	1041962	5.906746944732	1482
0	1043081	5.918995006394	1483
0	1043766	5.920691359864	1484
0	1044451	5.922873338991	1485
0	1045189	5.936921850024	1486
0	1045536	5.937617087861	1487
0	1046554	5.939999319891	1488
0	1047411	5.942621114461	1489
0	1047753	5.943343266121	1490
0	1048614	5.945283809339	1491
0	1049302	5.947034095501	1492
0	1050091	5.960047882053	1493
0	1050781	5.962287019627	1494
0	1051290	5.963469344005	1495
0	1052194	5.976740605021	1496
0	1052879	5.978501182741	1497
0	1053564	5.98131147473	1498
0	1053911	5.982066301439	1499
0	1054935	5.984376997909	1500
0	1055281	5.985125997909	1501
0	1055971	5.98664236925	1502
0	1057069	5.995277861933	1503
0	1057786	6.000787786427	1504
0	1058471	6.003309820779	1505
0	1059190	6.012790196244	1506
0	1059889	6.018229609734	1507
0	1060403	6.019466029808	1508
0	1061259	6.021541363303	1509
0	1061960	6.024028805884	1510
0	1062645	6.026496667169	1511
0	1063346	6.029245248657	1512
0	1064081	6.036006781677	1513
0	1064801	6.041739867606	1514
0	1065481	6.043418221076	1515
0	1066203	6.053322188455	1516
0	1067071	6.055181592073	1517
0	1067413	6.055921743733	1518
0	1068269	6.059740596913	1519
0	1068959	6.063233986329	1520
0	1069691	6.069551204621	1521
0	1070388	6.071968135466	1522
0	1071089	6.077679809564	1523
0	1071786	6.080088491704	1524
0	1072491	6.086183701597	1525
0	1073196	6.089824901151	1526
0	1073893	6.093831046712	1527
0	1074594	6.098120080072	1528
0	1075295	6.100932710493	1529
0	1076168	6.105670722783	1530
0	1076343	6.106148722783	1531
0	1077382	6.109431897226	1532
0	1078303	6.120967300836	1533
0	1078645	6.121770452496	1534
0	1079673	6.126301192754	1535
0	1079848	6.126653192754	1536
0	1080905	6.135467174831	1537
0	1081620	6.142252244964	1538
0	1082305	6.14391253816	1539
0	1083007	6.146120610565	1540
0	1083691	6.147834909293	1541
0	1084376	6.149666319021	1542
0	1085146	6.163390809002	1543
0	1085655	6.16460913338	1544
0	1086683	6.167158576256	1545
0	1087025	6.167916727916	1546
0	1087881	6.171073593193	1547
0	1088646	6.182756634469	1548
0	1089336	6.185468068151	1549
0	1089753	6.186482476634	1550
0	1090262	6.187772866131	1551
0	1091285	6.190020540556	1552
0	1092223	6.202326347706	1553
0	1092908	6.204969771412	1554
0	1093593	6.20648614235	1555
0	1094278	6.209171853473	1556
0	1094963	6.210742236147	1557
0	1095900	6.221790251411	1558
0	1096242	6.222530403071	1559
0	1097103	6.224776925836	1560
0	1097783	6.226329224564	1561
0	1098468	6.22802556449	1562
0	1099233	6.243044438846	1563
0	1099918	6.244641769211	1564
0	1100603	6.248701478491	1565
0	1101288	6.250550843055	1566
0	1101973	6.252319196525	1567
0	1102690	6.256346260553	1568
0	1103415	6.262394216379	1569
0	1104113	6.263991633981	1570
0	1104968	6.265980818167	1571
0	1105317	6.266720969827	1572
0	1106243	6.285941170856	1573
0	1106928	6.287981533367	1574
0	1107618	6.290759481229	1575
0	1108132	6.291959897064	1576
0	1108645	6.293043066196	1577
0	1109672	6.295602530612	1578
0	1110389	6.300581100705	1579
0	1111305	6.306445200897	1580
0	1111648	6.307185352557	1581
0	1112504	6.309224737462	1582
0	1113258	6.328919384645	1583
0	1113767	6.330128709023	1584
0	1114623	6.332024151903	1585
0	1115318	6.333576636193	1586
0	1115827	6.334678044676	1587
0	1116678	6.336600442427	1588
0	1117415	6.343314285669	1589
0	1118128	6.345917394131	1590
0	1118829	6.347559692859	1591
0	1119514	6.3501415576	1592
0	1120263	6.369859329547	1593
0	1121292	6.372277882147	1594
0	1121467	6.372719882147	1595
0	1121814	6.373433033807	1596
0	1123003	6.375942348005	1597
0	1123688	6.378248567722	1598
0	1124416	6.383468654292	1599
0	1125134	6.386507041825	1600
0	1125839	6.389275672016	1601
0	1126532	6.393631020063	1602
0	1127273	6.408161418351	1603
0	1127958	6.409763058688	1604
0	1128643	6.411486482382	1605
0	1129328	6.414653353686	1606
0	1130013	6.416304667884	1607
0	1130894	6.419898543823	1608
0	1131244	6.420728695483	1609
0	1132118	6.424224806436	1610
0	1132821	6.426105256731	1611
0	1133565	6.435265668448	1612
0	1134288	6.449917328564	1613
0	1135140	6.451830779872	1614
0	1135315	6.452200779872	1615
0	1136580	6.455434448098	1616
0	1136755	6.455849448098	1617
0	1137950	6.458556965851	1618
0	1138293	6.459396117511	1619
0	1139213	6.465890869517	1620
0	1139919	6.467857683625	1621
0	1140648	6.476908160279	1622
0	1141354	6.486800992659	1623
0	1142050	6.490104382647	1624
0	1143079	6.492495969205	1625
0	1143259	6.492892969205	1626
0	1143935	6.494400438246	1627
0	1144277	6.495194589906	1628
0	1145491	6.498545178765	1629
0	1146205	6.5023730596	1630
0	1146957	6.510188156971	1631
0	1147658	6.516063952717	1632
0	1148359	6.525137297473	1633
0	1148883	6.526346705956	1634
0	1149745	6.529265990997	1635
0	1150430	6.530836338982	1636
0	1151287	6.533263128309	1637
0	1151462	6.533660128309	1638
0	1152508	6.536693817937	1639
0	1153202	6.538165157863	1640
0	1153955	6.546409166487	1641
0	1154668	6.552903856876	1642
0	1155369	6.560513196108	1643
0	1156070	6.565221164802	1644
0	1157099	6.56969936075	1645
0	1157448	6.57052951241	1646
0	1157624	6.57089051241	1647
0	1158847	6.576071625569	1648
0	1159189	6.576757798287	1649
0	1160232	6.580221292883	1650
0	1161149	6.588844531703	1651
0	1161324	6.589259531703	1652
0	1162368	6.598409801813	1653
0	1163080	6.600994562921	1654
0	1163765	6.607393705702	1655
0	1164466	6.610146093734	1656
0	1165170	6.611878460229	1657
0	1165681	6.613069868712	1658
0	1166545	6.617482808031	1659
0	1166898	6.618205103952	1660
0	1167969	6.624168259645	1661
0	1168656	6.62610074441	1662
0	1169397	6.636174361557	1663
0	1170090	6.639870239139	1664
0	1170812	6.650977772757	1665
0	1171321	6.652187151661	1666
0	1172177	6.654217506906	1667
0	1172862	6.65584175239	1668
0	1173556	6.660575675788	1669
0	1174252	6.662307951248	1670
0	1174976	6.666299377174	1671
0	1175666	6.667932794776	1672
0	1176399	6.677220415696	1673
0	1177100	6.680690219561	1674
0	1177801	6.689473285161	1675
0	1178502	6.693172006595	1676
0	1179359	6.695157580291	1677
0	1179701	6.695996731951	1678
0	1180579	6.703137178545	1679
0	1181290	6.705847879597	1680
0	1181821	6.707030200838	1681
0	1182505	6.708600620912	1682
0	1183397	6.717124153321	1683
0	1184110	6.725011690626	1684
0	1184811	6.734198557556	1685
0	1185510	6.735786873499	1686
0	1186197	6.73828818307	1687
0	1186544	6.739019500451	1688
0	1187572	6.744118552621	1689
0	1188277	6.746090783894	1690
0	1188978	6.747994194153	1691
0	1189499	6.749167614227	1692
0	1190385	6.754934796792	1693
0	1191120	6.761097492626	1694
0	1191837	6.772044349658	1695
0	1192522	6.773668721544	1696
0	1193207	6.775652231254	1697
0	1193892	6.780323097028	1698
0	1194601	6.783827232629	1699
0	1195310	6.787987430489	1700
0	1195998	6.789827840748	1701
0	1196696	6.791875275805	1702
0	1197415	6.799367390101	1703
0	1198114	6.801036622131	1704
0	1198815	6.807267995349	1705
0	1199532	6.815094181099	1706
0	1200224	6.816682534569	1707
0	1200572	6.817494791392	1708
0	1201615	6.825694590917	1709
0	1202328	6.828481548055	1710
0	1203021	6.830087957783	1711
0	1203706	6.831649406744	1712
0	1204391	6.834814650119	1713
0	1205090	6.836529014683	1714
0	1205821	6.842310905264	1715
0	1206558	6.854265109547	1716
0	1207243	6.85728630741	1717
0	1207928	6.85884766088	1718
0	1208629	6.86600150834	1719
0	1209326	6.867715918599	1720
0	1210031	6.870755613214	1721
0	1210545	6.871883934455	1722
0	1211401	6.875371576088	1723
0	1212111	6.877963750167	1724
0	1212808	6.880623766855	1725
0	1213552	6.889649988926	1726
0	1214253	6.898644286431	1727
0	1214951	6.900304568915	1728
0	1215639	6.904404752478	1729
0	1216508	6.909129548032	1730
0	1216687	6.909562548032	1731
0	1217898	6.912180188506	1732
0	1218073	6.912568188506	1733
0	1219112	6.916331668051	1734
0	1219827	6.920981355177	1735
0	1220546	6.925786541889	1736
0	1221279	6.939609773521	1737
0	1221964	6.941551137784	1738
0	1222649	6.943601358361	1739
0	1223334	6.945330656098	1740
0	1224034	6.949890345518	1741
0	1224550	6.951045765592	1742
0	1225441	6.955092360441	1743
0	1226138	6.958069345076	1744
0	1226844	6.961308253305	1745
0	1227555	6.966027448335	1746
0	1228289	6.977511113455	1747
0	1228974	6.97923457212	1748
0	1229659	6.98143445553	1749
0	1230344	6.985739811983	1750
0	1231035	6.987481089219	1751
0	1231754	6.991504682834	1752
0	1232447	6.993102006082	1753
0	1233132	6.99477134492	1754
0	1233853	7.001154071402	1755
0	1234552	7.002679387345	1756
0	1235304	7.017968350666	1757
0	1235646	7.018699668047	1758
0	1236669	7.020992152337	1759
0	1237531	7.027364050577	1760
0	1237710	7.027752050577	1761
0	1238060	7.028447220158	1762
0	1239462	7.036141625165	1763
0	1240156	7.037747948413	1764
0	1240875	7.041927393361	1765
0	1241560	7.044185789603	1766
0	1242309	7.057229061738	1767
0	1242994	7.061189898472	1768
0	1243679	7.063919009526	1769
0	1244369	7.065758344056	1770
0	1244712	7.066588513637	1771
0	1245762	7.071764308426	1772
0	1246504	7.079579720751	1773
0	1247189	7.081104966235	1774
0	1247884	7.08267527003	1775
0	1248570	7.08622517771	1776
0	1249319	7.099467123539	1777
0	1250004	7.101046582204	1778
0	1250689	7.102787965201	1779
0	1251374	7.104985686684	1780
0	1252059	7.107173441577	1781
0	1252799	7.11504278184	1782
0	1253514	7.1235402688	1783
0	1254201	7.125083592048	1784
0	1254895	7.126608824078	1785
0	1255580	7.129068953312	1786
0	1256329	7.140419970461	1787
0	1257014	7.141972429126	1788
0	1257704	7.143785812123	1789
0	1258213	7.144968227958	1790
0	1259071	7.149850994197	1791
0	1259815	7.15601167209	1792
0	1260519	7.163598623593	1793
0	1261204	7.165332085062	1794
0	1261905	7.170139195941	1795
0	1262593	7.173298977682	1796
0	1263307	7.178791079181	1797
0	1264003	7.180644360467	1798
0	1264693	7.182771618762	1799
0	1265394	7.185656832748	1800
0	1266083	7.188582449987	1801
0	1266837	7.198879498728	1802
0	1267529	7.2033083604	1803
0	1268214	7.206381595756	1804
0	1268915	7.212347754211	1805
0	1269616	7.215601509251	1806
0	1270489	7.217632109452	1807
0	1270664	7.218038109452	1808
0	1271687	7.220312533146	1809
0	1272442	7.230281582817	1810
0	1273137	7.232159248642	1811
0	1273822	7.234606975457	1812
0	1274543	7.244194637763	1813
0	1275240	7.245971961011	1814
0	1275931	7.254153674168	1815
0	1276634	7.256053450326	1816
0	1277327	7.259163717121	1817
0	1278012	7.260995127429	1818
0	1278697	7.263054354137	1819
0	1279398	7.265445694059	1820
0	1280151	7.275239970851	1821
0	1280848	7.276711594093	1822
0	1281533	7.280756967587	1823
0	1282250	7.288873281757	1824
0	1282951	7.296231105519	1825
0	1283637	7.298388588936	1826
0	1284162	7.299633909728	1827
0	1284851	7.301105333422	1828
0	1285707	7.30309074373	1829
0	1286392	7.304768503044	1830
0	1287121	7.310573835989	1831
0	1287838	7.313612467986	1832
0	1288545	7.320166990819	1833
0	1289272	7.330875428569	1834
0	1289966	7.335044891421	1835
0	1290646	7.336714274095	1836
0	1291336	7.338468401683	1837
0	1291845	7.339659780587	1838
0	1292715	7.341627111281	1839
0	1293418	7.346045289727	1840
0	1294147	7.350647956545	1841
0	1294852	7.353783914104	1842
0	1295552	7.356974016651	1843
0	1296286	7.369981504643	1844
0	1296971	7.371767269902	1845
0	1297656	7.373940406984	1846
0	1298341	7.37688081548	1847
0	1299038	7.380754672341	1848
0	1299759	7.385828041953	1849
0	1300460	7.387875989127	1850
0	1300974	7.389085436708	1851
0	1301846	7.393022925791	1852
0	1302571	7.399706134693	1853
0	1303468	7.414598029358	1854
0	1303810	7.415365181018	1855
0	1304838	7.417684721666	1856
0	1305180	7.418370873326	1857
0	1306036	7.421201940119	1858
0	1306735	7.424913518472	1859
0	1307261	7.426104966053	1860
0	1307791	7.427285122316	1861
0	1308861	7.434822899568	1862
[...]
107	1117005	6.304149796013	360000
107	1130340	6.404149796013	240000
107	1150077	6.504149796013	360000
107	1170417	6.604149796013	360000
107	1184437	6.704149796013	240000
107	1205419	6.804149796013	360000
107	1219439	6.904149796013	240000
107	1239966	7.004149796013	360000
107	1255222	7.104149796013	240000
107	1269247	7.204149796013	240000
107	1290973	7.304149796013	360000
107	1305340	7.404149796013	240000
107	1326716	7.504149796013	360000
107	1340027	7.604149796013	240000
107	1360699	7.704149796013	360000
107	1373677	7.804149796013	240000
107	1394966	7.904149796013	360000
107	1410885	8.004149796013	240000
107	1429144	8.104149796013	360000
107	1450173	8.204149796013	360000
107	1464385	8.304149796013	240000
107	1484537	8.404149796013	360000
107	1499243	8.504149796013	240000
107	1520289	8.604149796013	360000
107	1534325	8.704149796013	240000
107	1558095	8.804149796013	360000
107	1571438	8.904149796013	240000
107	1593862	9.004149796013	360000
107	1605768	9.104149796013	240000
107	1624743	9.204149796013	360000
107	1638774	9.304149796013	240000
107	1659792	9.404149796013	360000
107	1673808	9.504149796013	240000
107	1694854	9.604149796013	360000
107	1708874	9.704149796013	240000
107	1729880	9.804149796013	360000
107	1743912	9.904149796013	240000
107	1758701	10	375586.05514165
108	697014	3.943069823504	-198120.16401586
108	718060	4.043069823504	240000
108	732064	4.143069823504	240000
108	752409	4.243069823504	360000
108	773791	4.343069823504	360000
108	788144	4.443069823504	240000
108	802511	4.543069823504	240000
108	824070	4.643069823504	360000
108	843103	4.743069823504	360000
108	858488	4.843069823504	240000
108	873722	4.943069823504	240000
108	894800	5.043069823504	360000
108	908792	5.143069823504	240000
108	929834	5.243069823504	360000
108	946257	5.343069823504	240000
108	964852	5.443069823504	360000
108	977506	5.543069823504	240000
108	999014	5.643069823504	360000
108	1012526	5.743069823504	240000
108	1034251	5.843069823504	360000
108	1048265	5.943069823504	240000
108	1070720	6.043069823504	360000
108	1084707	6.143069823504	240000
108	1103759	6.243069823504	360000
108	1117757	6.343069823504	240000
108	1140258	6.443069823504	360000
108	1154294	6.543069823504	240000
108	1175997	6.643069823504	360000
108	1187912	6.743069823504	240000
108	1211047	6.843069823504	360000
108	1223665	6.943069823504	240000
108	1245394	7.043069823504	360000
108	1259408	7.143069823504	240000
108	1281179	7.243069823504	360000
108	1295183	7.343069823504	240000
108	1316210	7.443069823504	360000
108	1330934	7.543069823504	240000
108	1344954	7.643069823504	240000
108	1367193	7.743069823504	360000
108	1382847	7.843069823504	240000
108	1404051	7.943069823504	360000
108	1419116	8.043069823504	240000
108	1440877	8.143069823504	360000
108	1454057	8.243069823504	240000
108	1468419	8.343069823504	240000
108	1488744	8.443069823504	360000
108	1504154	8.543069823504	240000
108	1523782	8.643069823504	360000
108	1544079	8.743069823504	360000
108	1565121	8.843069823504	360000
108	1579877	8.943069823504	240000
108	1592473	9.043069823504	240000
108	1615442	9.143069823504	360000
108	1629986	9.243069823504	240000
108	1649261	9.343069823504	360000
108	1662580	9.443069823504	240000
108	1682245	9.543069823504	360000
108	1696602	9.643069823504	240000
108	1719859	9.743069823504	360000
108	1731475	9.843069823504	240000
108	1755080	9.943069823504	360000
108	1758701	10	210784.52129589
109	697723	3.9476318954	-198269.50034449
109	719454	4.0476318954	240000
109	733479	4.1476318954	240000
109	753274	4.2476318954	360000
109	772746	4.3476318954	360000
109	786772	4.4476318954	240000
109	802857	4.5476318954	240000
109	823202	4.6476318954	360000
109	844823	4.7476318954	360000
109	858158	4.8476318954	240000
109	880039	4.9476318954	360000
109	893888	5.0476318954	240000
109	915121	5.1476318954	360000
109	929137	5.2476318954	240000
109	943161	5.3476318954	240000
109	964175	5.4476318954	360000
109	985552	5.5476318954	360000
109	999932	5.6476318954	240000
109	1013250	5.7476318954	240000
109	1033236	5.8476318954	360000
109	1056488	5.9476318954	360000
109	1068608	6.0476318954	240000
109	1090944	6.1476318954	360000
109	1103029	6.2476318954	240000
109	1122829	6.3476318954	360000
109	1137442	6.4476318954	240000
109	1157971	6.5476318954	360000
109	1171665	6.6476318954	240000
109	1193546	6.7476318954	360000
109	1206897	6.8476318954	240000
109	1227895	6.9476318954	360000
109	1248909	7.0476318954	360000
109	1262942	7.1476318954	240000
109	1277671	7.2476318954	240000
109	1297995	7.3476318954	360000
109	1313052	7.4476318954	240000
109	1334423	7.5476318954	360000
109	1347048	7.6476318954	240000
109	1365992	7.7476318954	360000
109	1381652	7.8476318954	240000
109	1402864	7.9476318954	360000
109	1423516	8.0476318954	360000
109	1437375	8.1476318954	240000
109	1457896	8.2476318954	360000
109	1471215	8.3476318954	240000
109	1495001	8.4476318954	360000
109	1509053	8.5476318954	240000
109	1528012	8.6476318954	360000
109	1543060	8.7476318954	240000
109	1562338	8.8476318954	360000
109	1576514	8.9476318954	240000
109	1598769	9.0476318954	360000
109	1612794	9.1476318954	240000
109	1633831	9.2476318954	360000
109	1647857	9.3476318954	240000
109	1663958	9.4476318954	240000
109	1686578	9.5476318954	360000
109	1700260	9.6476318954	240000
109	1722149	9.7476318954	360000
109	1736211	9.8476318954	240000
109	1757196	9.9476318954	360000
109	1758701	10	229147.11333662
110	699478	3.953707436348	-198468.72895532
110	720145	4.053707436348	240000
110	741881	4.153707436348	360000
110	755195	4.253707436348	240000
110	775734	4.353707436348	360000
110	790259	4.453707436348	240000
110	804277	4.553707436348	240000
110	824609	4.653707436348	360000
110	845342	4.753707436348	360000
110	859362	4.853707436348	240000
110	879336	4.953707436348	360000
110	894065	5.053707436348	240000
110	913729	5.153707436348	360000
110	928446	5.253707436348	240000
110	949476	5.353707436348	360000
110	963496	5.453707436348	240000
110	984515	5.553707436348	360000
110	999199	5.653707436348	240000
110	1020266	5.753707436348	360000
110	1033752	5.853707436348	240000
110	1053224	5.953707436348	360000
110	1067929	6.053707436348	240000
110	1090607	6.153707436348	360000
110	1104625	6.253707436348	240000
110	1126885	6.353707436348	360000
110	1140998	6.453707436348	240000
110	1155013	6.553707436348	240000
110	1175331	6.653707436348	360000
110	1197041	6.753707436348	360000
110	1210723	6.853707436348	240000
110	1232792	6.953707436348	360000
110	1247021	7.053707436348	240000
110	1260864	7.153707436348	240000
110	1282595	7.253707436348	360000
110	1296631	7.353707436348	240000
110	1317661	7.453707436348	360000
110	1331638	7.553707436348	240000
110	1353530	7.653707436348	360000
110	1367712	7.753707436348	240000
110	1388830	7.853707436348	360000
110	1401486	7.953707436348	240000
110	1424206	8.053707436348	360000
110	1438250	8.153707436348	240000
110	1459308	8.253707436348	360000
110	1472966	8.353707436348	240000
110	1493637	8.453707436348	360000
110	1508374	8.553707436348	240000
110	1530089	8.653707436348	360000
110	1544798	8.753707436348	240000
110	1565856	8.853707436348	360000
110	1579175	8.953707436348	240000
110	1599841	9.053707436348	360000
110	1614210	9.153707436348	240000
110	1629301	9.253707436348	240000
110	1650661	9.353707436348	360000
110	1671703	9.453707436348	360000
110	1686238	9.553707436348	240000
110	1701117	9.653707436348	240000
110	1718155	9.753707436348	360000
110	1733384	9.853707436348	240000
110	1752359	9.953707436348	360000
110	1758701	10	259220.89971532
111	701252	3.967135185687	-198910.47403433
111	722967	4.067135185687	240000
111	737003	4.167135185687	240000
111	758049	4.267135185687	360000
111	772065	4.367135185687	240000
111	793083	4.467135185687	360000
111	806734	4.567135185687	240000
111	828101	4.667135185687	360000
111	849199	4.767135185687	360000
111	862525	4.867135185687	240000
111	876583	4.967135185687	240000
111	897572	5.067135185687	360000
111	918596	5.167135185687	360000
111	932116	5.267135185687	240000
111	952619	5.367135185687	360000
111	966307	5.467135185687	240000
111	988702	5.567135185687	360000
111	1002722	5.667135185687	240000
111	1022356	5.767135185687	360000
111	1037788	5.867135185687	240000
111	1058133	5.967135185687	360000
111	1072838	6.067135185687	240000
111	1087372	6.167135185687	240000
111	1108479	6.267135185687	360000
111	1124035	6.367135185687	240000
111	1145145	6.467135185687	360000
111	1158488	6.567135185687	240000
111	1179881	6.667135185687	360000
111	1194239	6.767135185687	240000
111	1214780	6.867135185687	360000
111	1228641	6.967135185687	240000
111	1249671	7.067135185687	360000
111	1264355	7.167135185687	240000
111	1283298	7.267135185687	360000
111	1297318	7.367135185687	240000
111	1318348	7.467135185687	360000
111	1332868	7.567135185687	240000
111	1355464	7.667135185687	360000
111	1369459	7.767135185687	240000
111	1390620	7.867135185687	360000
111	1404752	7.967135185687	240000
111	1424962	8.067135185687	360000
111	1441064	8.167135185687	240000
111	1462110	8.267135185687	360000
111	1476815	8.367135185687	240000
111	1490166	8.467135185687	240000
111	1511865	8.567135185687	360000
111	1531145	8.667135185687	360000
111	1545529	8.767135185687	240000
111	1566575	8.867135185687	360000
111	1580595	8.967135185687	240000
111	1601239	9.067135185687	360000
111	1616314	9.167135185687	240000
111	1634553	9.267135185687	360000
111	1648764	9.367135185687	240000
111	1668580	9.467135185687	360000
111	1690636	9.567135185687	360000
111	1706727	9.667135185687	240000
111	1720744	9.767135185687	240000
111	1742279	9.867135185687	360000
111	1756480	9.967135185687	240000
111	1758701	10	365132.14058396
112	702636	3.978465538748	-199284.75170605
112	724367	4.078465538748	240000
112	738046	4.178465538748	240000
112	759590	4.278465538748	360000
112	774807	4.378465538748	240000
112	796548	4.478465538748	360000
112	811985	4.578465538748	240000
112	826706	4.678465538748	240000
112	846428	4.778465538748	360000
112	867459	4.878465538748	360000
112	881463	4.978465538748	240000
112	904226	5.078465538748	360000
112	917883	5.178465538748	240000
112	933493	5.278465538748	240000
112	955013	5.378465538748	360000
112	969076	5.478465538748	240000
112	983108	5.578465538748	240000
112	1004824	5.678465538748	360000
112	1025168	5.778465538748	360000
112	1039873	5.878465538748	240000
112	1055097	5.978465538748	240000
112	1077010	6.078465538748	360000
112	1091614	6.178465538748	240000
112	1111810	6.278465538748	360000
112	1124753	6.378465538748	240000
112	1145820	6.478465538748	360000
112	1165843	6.578465538748	360000
112	1179008	6.678465538748	240000
112	1199144	6.778465538748	360000
112	1213146	6.878465538748	240000
112	1234891	6.978465538748	360000
112	1247525	7.078465538748	240000
112	1267858	7.178465538748	360000
112	1281862	7.278465538748	240000
112	1302908	7.378465538748	360000
112	1323218	7.478465538748	360000
112	1337257	7.578465538748	240000
112	1351282	7.678465538748	240000
112	1371606	7.778465538748	360000
112	1391999	7.878465538748	360000
112	1406044	7.978465538748	240000
112	1427026	8.078465538748	360000
112	1446686	8.178465538748	360000
112	1460894	8.278465538748	240000
112	1475427	8.378465538748	240000
112	1495777	8.478465538748	360000
112	1516772	8.578465538748	360000
112	1532881	8.678465538748	240000
112	1546938	8.778465538748	240000
112	1568644	8.878465538748	360000
112	1582664	8.978465538748	240000
112	1603891	9.078465538748	360000
112	1617730	9.178465538748	240000
112	1639461	9.278465538748	360000
112	1653481	9.378465538748	240000
112	1674511	9.478465538748	360000
112	1688531	9.578465538748	240000
112	1709561	9.678465538748	360000
112	1723243	9.778465538748	240000
112	1737601	9.878465538748	240000
112	1758627	9.978465538748	360000
112	1758701	10	557246.35316268
113	705421	3.989714264149	-199657.72889
113	725749	4.089714264149	240000
113	747464	4.189714264149	360000
113	761683	4.289714264149	240000
113	777623	4.389714264149	240000
113	799360	4.489714264149	360000
113	813408	4.589714264149	240000
113	834576	4.689714264149	360000
113	847811	4.789714264149	240000
113	868156	4.889714264149	360000
113	882861	4.989714264149	240000
113	902505	5.089714264149	360000
113	917724	5.189714264149	240000
113	936848	5.289714264149	360000
113	953126	5.389714264149	240000
113	974676	5.489714264149	360000
113	988016	5.589714264149	240000
113	1007619	5.689714264149	360000
113	1021635	5.789714264149	240000
113	1042641	5.889714264149	360000
113	1062301	5.989714264149	360000
113	1076684	6.089714264149	240000
113	1098129	6.189714264149	360000
113	1112845	6.289714264149	240000
113	1126180	6.389714264149	240000
113	1146556	6.489714264149	360000
113	1167581	6.589714264149	360000
113	1180930	6.689714264149	240000
113	1203367	6.789714264149	360000
113	1215980	6.889714264149	240000
113	1236159	6.989714264149	360000
113	1250350	7.089714264149	240000
113	1270144	7.189714264149	360000
113	1286220	7.289714264149	240000
113	1301488	7.389714264149	240000
113	1321835	7.489714264149	360000
113	1342877	7.589714264149	360000
113	1356913	7.689714264149	240000
113	1370933	7.789714264149	240000
113	1392721	7.889714264149	360000
113	1406741	7.989714264149	240000
113	1431226	8.089714264149	360000
113	1444584	8.189714264149	240000
113	1466657	8.289714264149	360000
113	1480999	8.389714264149	240000
113	1500643	8.489714264149	360000
113	1513994	8.589714264149	240000
113	1535196	8.689714264149	360000
113	1548708	8.789714264149	240000
113	1569871	8.889714264149	360000
113	1584078	8.989714264149	240000
113	1605092	9.089714264149	360000
113	1620506	9.189714264149	240000
113	1635267	9.289714264149	240000
113	1656966	9.389714264149	360000
113	1670285	9.489714264149	240000
113	1691331	9.589714264149	360000
113	1710621	9.689714264149	360000
113	1726199	9.789714264149	240000
113	1740386	9.889714264149	240000
113	1758701	9.989714264149	360000
113	1758701	10	0
114	706816	3.995406393146	-199846.99691087
114	727833	4.095406393146	240000
114	750278	4.195406393146	360000
114	762731	4.295406393146	240000
114	776594	4.395406393146	240000
114	796380	4.495406393146	360000
114	815474	4.595406393146	360000
114	829523	4.695406393146	240000
114	851825	4.795406393146	360000
114	863946	4.895406393146	240000
114	885656	4.995406393146	360000
114	905956	5.095406393146	360000
114	919979	5.195406393146	240000
114	938903	5.295406393146	360000
114	953800	5.395406393146	240000
114	973301	5.495406393146	360000
114	987839	5.595406393146	240000
114	1009736	5.695406393146	360000
114	1023756	5.795406393146	240000
114	1043588	5.895406393146	360000
114	1057412	5.995406393146	240000
114	1078813	6.095406393146	360000
114	1092558	6.195406393146	240000
114	1114963	6.295406393146	360000
114	1128978	6.395406393146	240000
114	1144959	6.495406393146	240000
114	1164104	6.595406393146	360000
114	1180207	6.695406393146	240000
114	1200039	6.795406393146	360000
114	1215289	6.895406393146	240000
114	1237004	6.995406393146	360000
114	1251024	7.095406393146	240000
114	1272022	7.195406393146	360000
114	1284339	7.295406393146	240000
114	1306371	7.395406393146	360000
114	1326036	7.495406393146	360000
114	1341416	7.595406393146	240000
114	1361747	7.695406393146	360000
114	1376113	7.795406393146	240000
114	1396702	7.895406393146	360000
114	1409344	7.995406393146	240000
114	1430008	8.095406393146	360000
114	1449480	8.195406393146	360000
114	1464902	8.295406393146	240000
114	1478751	8.395406393146	240000
114	1499952	8.495406393146	360000
114	1515722	8.595406393146	240000
114	1536388	8.695406393146	360000
114	1549732	8.795406393146	240000
114	1570737	8.895406393146	360000
114	1586340	8.995406393146	240000
114	1604068	9.095406393146	360000
114	1624061	9.195406393146	360000
114	1638035	9.295406393146	240000
114	1659079	9.395406393146	360000
114	1673079	9.495406393146	240000
114	1693568	9.595406393146	360000
114	1707602	9.695406393146	240000
114	1728491	9.795406393146	360000
114	1742440	9.895406393146	240000
114	1758701	9.995406393146	360000
114	1758701	10	0
115	707516	3.998462390031	-199948.75946569
115	729963	4.098462390031	240000
115	743269	4.198462390031	240000
115	764288	4.298462390031	360000
115	778300	4.398462390031	240000
115	797944	4.498462390031	360000
115	812494	4.598462390031	240000
115	833716	4.698462390031	360000
115	847123	4.798462390031	240000
115	868833	4.898462390031	360000
115	888477	4.998462390031	360000
115	903199	5.098462390031	240000
115	924199	5.198462390031	360000
115	938045	5.298462390031	240000
115	954136	5.398462390031	240000
115	973988	5.498462390031	360000
115	986638	5.598462390031	240000
115	1008348	5.698462390031	360000
115	1023412	5.798462390031	240000
115	1044784	5.898462390031	360000
115	1058804	5.998462390031	240000
115	1079149	6.098462390031	360000
115	1093246	6.198462390031	240000
115	1114271	6.298462390031	360000
115	1129666	6.398462390031	240000
115	1151795	6.498462390031	360000
115	1167400	6.598462390031	240000
115	1182325	6.698462390031	240000
115	1201957	6.798462390031	360000
115	1218748	6.898462390031	240000
115	1238918	6.998462390031	360000
115	1253139	7.098462390031	240000
115	1267177	7.198462390031	240000
115	1287466	7.298462390031	360000
115	1308480	7.398462390031	360000
115	1322524	7.498462390031	240000
115	1343574	7.598462390031	360000
115	1357590	7.698462390031	240000
115	1372311	7.798462390031	240000
115	1393414	7.898462390031	360000
115	1413920	7.998462390031	360000
115	1427779	8.098462390031	240000
115	1448769	8.198462390031	360000
115	1462781	8.298462390031	240000
115	1483126	8.398462390031	360000
115	1497151	8.498462390031	240000
115	1518176	8.598462390031	360000
115	1532180	8.698462390031	240000
115	1554628	8.798462390031	360000
115	1567963	8.898462390031	240000
115	1588993	8.998462390031	360000
115	1604571	9.098462390031	240000
115	1626815	9.198462390031	360000
115	1640338	9.298462390031	240000
115	1654174	9.398462390031	240000
115	1676263	9.498462390031	360000
115	1689928	9.598462390031	240000
115	1711983	9.698462390031	360000
115	1726362	9.798462390031	240000
115	1747049	9.898462390031	360000
115	1758701	9.998462390031	240000
115	1758701	10	0
116	708252	4.006048493645	-200201.8199059
116	728581	4.106048493645	240000
116	748878	4.206048493645	360000
116	763599	4.306048493645	240000
116	784304	4.406048493645	360000
116	798666	4.506048493645	240000
116	818281	4.606048493645	360000
116	833377	4.706048493645	240000
116	856187	4.806048493645	360000
116	869538	4.906048493645	240000
116	884266	5.006048493645	240000
116	905273	5.106048493645	360000
116	927012	5.206048493645	360000
116	941004	5.306048493645	240000
116	961337	5.406048493645	360000
116	975380	5.506048493645	240000
116	989422	5.606048493645	240000
116	1012357	5.706048493645	360000
116	1027259	5.806048493645	240000
116	1042299	5.906048493645	240000
116	1060740	6.006048493645	360000
116	1081250	6.106048493645	360000
116	1093930	6.206048493645	240000
116	1113937	6.306048493645	360000
116	1127610	6.406048493645	240000
116	1149226	6.506048493645	360000
116	1169742	6.606048493645	360000
116	1183741	6.706048493645	240000
116	1204739	6.806048493645	360000
116	1218577	6.906048493645	240000
116	1238576	7.006048493645	360000
116	1258721	7.106048493645	360000
116	1272786	7.206048493645	240000
116	1293054	7.306048493645	360000
116	1307435	7.406048493645	240000
116	1328853	7.506048493645	360000
116	1342182	7.606048493645	240000
116	1363182	7.706048493645	360000
116	1377226	7.806048493645	240000
116	1398301	7.906048493645	360000
116	1410557	8.006048493645	240000
116	1434044	8.106048493645	360000
116	1446009	8.206048493645	240000
116	1465607	8.306048493645	360000
116	1480310	8.406048493645	240000
116	1498727	8.506048493645	360000
116	1519594	8.606048493645	360000
116	1533591	8.706048493645	240000
116	1554294	8.806048493645	360000
116	1574790	8.906048493645	360000
116	1588308	9.006048493645	240000
116	1609314	9.106048493645	360000
116	1622801	9.206048493645	240000
116	1645045	9.306048493645	360000
116	1658560	9.406048493645	240000
116	1679757	9.506048493645	360000
116	1692019	9.606048493645	240000
116	1713715	9.706048493645	360000
116	1724652	9.806048493645	240000
116	1747401	9.906048493645	360000
116	1758701	10	255450.93347748

