version 3
run UDP2-0-20241031-17:58:51-14592
attr configname UDP2
attr datetime 20241031-17:58:51
attr datetimef 20241031-175851
attr experiment UDP2
attr inifile omnetpp.ini
attr iterationvars ""
attr iterationvarsd ""
attr iterationvarsf ""
attr measurement ""
attr network MixedWLAN
attr processid 14592
attr repetition 0
attr replication #0
attr resultdir results
attr runnumber 0
attr seedset 0
config image-path ../../inet4.5/images
config **.numHostsTCP 0
config **.numHostsUDP 3
config network MixedWLAN
config sim-time-limit 10s
config **.mac.**.vector-recording false
config **.mac.**.bin-recording false
config **.tcp.**.vector-recording false
config **.tcp.**.bin-recording false
config **.radio.**.vector-recording false
config **.radio.**.bin-recording false
config **.constraintAreaMinX 0m
config **.constraintAreaMinY 0m
config **.constraintAreaMinZ 0m
config **.constraintAreaMaxX 50m
config **.constraintAreaMaxY 50m
config **.constraintAreaMaxZ 0m
config **.ap.wlan[*].address "\"10:00:00:00:00:00\""
config **.*host*.**.mgmt.accessPointAddress "\"10:00:00:00:00:00\""
config **.numApps 1
config **.udphost[0].app[*].typename UdpEchoApp
config **.udphost[0].app[*].localPort 3088
config **.udphost[*].app[*].typename UdpBasicApp
config **.udphost[*].app[*].destAddresses "\"udphost[0]\""
config **.udphost[*].app[*].messageLength 1500B
config **.udphost[*].app[*].sendInterval "40ms + uniform(-5ms, 5ms)"
config **.udphost[*].app[*].destPort 3088
config **.udphost[*].app[*].startTime 0s
config **.udphost[*].app[*].stopTime -1s
config **.tcphost[0].numApps 1
config **.tcphost[0].app[*].typename TcpGenericServerApp
config **.tcphost[0].app[0].localPort 1000
config **.tcphost[0].app[0].active true
config **.tcphost[*].numApps 1
config **.tcphost[*].app[*].typename TcpBasicClientApp
config **.tcphost[*].app[0].active true
config **.tcphost[*].app[0].connectAddress "\"tcphost[0]\""
config **.tcphost[*].app[0].connectPort 1000
config **.tcphost[*].app[0].startTime 0s
config **.tcphost[*].app[0].stopTime -1s
config **.tcphost[*].app[0].thinkTime 0s
config **.tcphost[*].app[0].idleInterval "40ms + uniform(-5ms, 5ms)"
config **.tcphost[*].app[0].reconnectInterval 0s
config **.tcphost[*].app[0].numRequestsPerSession 1
config **.tcphost[*].app[0].requestLength 1500B
config **.tcphost[*].app[0].replyLength 1500B
config **.wlan[*].bitrate 433.3Mbps
config **.wlan[*].mac.dcf.channelAccess.pendingQueue.packetCapacity 40
config **.wlan[*].mac.dcf.channelAccess.cwMin 20
config **.bandName "\"5 GHz (20 MHz)\""
config **.opMode "\"ac\""
config **.wlan[*].radio.antenna.numAntennas 8
config **.wlan[*].radio.transmitter.power 10mW
config **.wlan[*].radio.transmitter.headerLength 192b
config **.wlan[*].radio.transmitter.centerFrequency 5GHz
config **.wlan[*].radio.receiver.sensitivity -85dBm
config **.wlan[*].radio.receiver.snirThreshold 4dB

vector 0 MixedWLAN.udphost[0].udp passedUpPk:vector(count) ETV
attr interpolationmode none
attr recordingmode vector(count)
attr source packetSentToUpper
attr title "packets passed up, count"
vector 1 MixedWLAN.udphost[0].udp droppedPkWrongPort:vector(count) ETV
attr interpolationmode none
attr recordingmode vector(count)
attr source packetDropReasonIsNoPortFound(packetDropped)
attr title "packets dropped (wrong port), count"
vector 2 MixedWLAN.udphost[0].udp droppedPkBadChecksum:vector(count) ETV
attr interpolationmode none
attr recordingmode vector(count)
attr source packetDropReasonIsIncorrectlyReceived(packetDropped)
attr title "packets dropped (checksum error), count"
vector 3 MixedWLAN.udphost[1].udp passedUpPk:vector(count) ETV
attr interpolationmode none
attr recordingmode vector(count)
attr source packetSentToUpper
attr title "packets passed up, count"
vector 4 MixedWLAN.udphost[1].udp droppedPkWrongPort:vector(count) ETV
attr interpolationmode none
attr recordingmode vector(count)
attr source packetDropReasonIsNoPortFound(packetDropped)
attr title "packets dropped (wrong port), count"
vector 5 MixedWLAN.udphost[1].udp droppedPkBadChecksum:vector(count) ETV
attr interpolationmode none
attr recordingmode vector(count)
attr source packetDropReasonIsIncorrectlyReceived(packetDropped)
attr title "packets dropped (checksum error), count"
vector 6 MixedWLAN.udphost[2].udp passedUpPk:vector(count) ETV
attr interpolationmode none
attr recordingmode vector(count)
attr source packetSentToUpper
attr title "packets passed up, count"
vector 7 MixedWLAN.udphost[2].udp droppedPkWrongPort:vector(count) ETV
attr interpolationmode none
attr recordingmode vector(count)
attr source packetDropReasonIsNoPortFound(packetDropped)
attr title "packets dropped (wrong port), count"
vector 8 MixedWLAN.udphost[2].udp droppedPkBadChecksum:vector(count) ETV
attr interpolationmode none
attr recordingmode vector(count)
attr source packetDropReasonIsIncorrectlyReceived(packetDropped)
attr title "packets dropped (checksum error), count"
vector 9 MixedWLAN.udphost[1].app[0] packetSent:vector(packetBytes) ETV
attr interpolationmode none
attr recordingmode vector(packetBytes)
attr source packetSent
attr title "packets sent, packetBytes"
vector 10 MixedWLAN.udphost[2].app[0] packetSent:vector(packetBytes) ETV
attr interpolationmode none
attr recordingmode vector(packetBytes)
attr source packetSent
attr title "packets sent, packetBytes"
vector 11 MixedWLAN.udphost[1].udp packetSent:vector(packetBytes) ETV
attr interpolationmode none
attr recordingmode vector(packetBytes)
attr source packetSent
attr title "packets sent, packetBytes"
vector 12 MixedWLAN.udphost[2].udp packetSent:vector(packetBytes) ETV
attr interpolationmode none
attr recordingmode vector(packetBytes)
attr source packetSent
attr title "packets sent, packetBytes"
vector 13 MixedWLAN.udphost[1].ipv4.arp arpRequestSent:vector(packetBytes) ETV
attr recordingmode vector(packetBytes)
attr source arpRequestSent
attr title "ARP request sent, packetBytes"
vector 14 MixedWLAN.udphost[2].ipv4.arp arpRequestSent:vector(packetBytes) ETV
attr recordingmode vector(packetBytes)
attr source arpRequestSent
attr title "ARP request sent, packetBytes"
vector 15 MixedWLAN.udphost[0].ipv4.arp arpReplySent:vector(packetBytes) ETV
attr recordingmode vector(packetBytes)
attr source arpReplySent
attr title "ARP replies sent, packetBytes"
vector 16 MixedWLAN.udphost[0].udp packetReceived:vector(packetBytes) ETV
attr interpolationmode none
attr recordingmode vector(packetBytes)
attr source packetReceived
attr title "packets received, packetBytes"
vector 17 MixedWLAN.udphost[0].app[0] echoedPk:vector(packetBytes) ETV
attr interpolationmode none
attr recordingmode vector(packetBytes)
attr source packetSent
attr title "packets echoed, packetBytes"
vector 18 MixedWLAN.udphost[0].udp packetSent:vector(packetBytes) ETV
attr interpolationmode none
attr recordingmode vector(packetBytes)
attr source packetSent
attr title "packets sent, packetBytes"
vector 19 MixedWLAN.udphost[2].udp packetReceived:vector(packetBytes) ETV
attr interpolationmode none
attr recordingmode vector(packetBytes)
attr source packetReceived
attr title "packets received, packetBytes"
vector 20 MixedWLAN.udphost[2].app[0] packetReceived:vector(packetBytes) ETV
attr interpolationmode none
attr recordingmode vector(packetBytes)
attr source packetReceived
attr title "packets received, packetBytes"
vector 21 MixedWLAN.udphost[2].app[0] rcvdPkLifetime:vector ETV
attr interpolationmode none
attr recordingmode vector
attr source dataAge(packetReceived)
attr title "received packet lifetime"
attr unit s
vector 22 MixedWLAN.udphost[2].app[0] rcvdPkSeqNo:vector ETV
attr interpolationmode none
attr recordingmode vector
attr source appPkSeqNo(packetReceived)
attr title "received packet sequence number"
vector 23 MixedWLAN.udphost[1].udp packetReceived:vector(packetBytes) ETV
attr interpolationmode none
attr recordingmode vector(packetBytes)
attr source packetReceived
attr title "packets received, packetBytes"
vector 24 MixedWLAN.udphost[1].app[0] packetReceived:vector(packetBytes) ETV
attr interpolationmode none
attr recordingmode vector(packetBytes)
attr source packetReceived
attr title "packets received, packetBytes"
vector 25 MixedWLAN.udphost[1].app[0] rcvdPkLifetime:vector ETV
attr interpolationmode none
attr recordingmode vector
attr source dataAge(packetReceived)
attr title "received packet lifetime"
attr unit s
vector 26 MixedWLAN.udphost[1].app[0] rcvdPkSeqNo:vector ETV
attr interpolationmode none
attr recordingmode vector
attr source appPkSeqNo(packetReceived)
attr title "received packet sequence number"
vector 27 MixedWLAN.udphost[2].app[0] throughput:vector ETV
attr recordingmode vector
attr source throughput(packetReceived)
attr title throughput
attr unit bps
vector 28 MixedWLAN.udphost[1].app[0] throughput:vector ETV
attr recordingmode vector
attr source throughput(packetReceived)
attr title throughput
attr unit bps
0	0	0	0
0	435	0.002767734678	1
0	506	0.003101734678	2
0	1019	0.04135557144	3
0	1153	0.042104642112	4
0	1521	0.081213937014	5
0	1790	0.083498897956	6
0	2091	0.118778493128	7
0	2360	0.121713307997	8
0	2661	0.157805111512	9
0	2930	0.163233973881	10
0	3231	0.196287633214	11
0	3500	0.198654228136	12
0	3801	0.236169144149	13
0	4070	0.237829439271	14
0	4371	0.272659840014	15
0	4640	0.27489835997	16
0	4941	0.315012603688	17
0	5210	0.31650189881	18
0	5511	0.350404481578	19
0	5780	0.354291120814	20
0	6081	0.394037507218	21
0	6350	0.39558980234	22
0	6651	0.431819499401	23
0	6920	0.43738892801	24
0	7221	0.466866454222	25
0	7495	0.476766808649	26
0	7791	0.507705973237	27
0	8076	0.52012289531	28
0	8361	0.546644030625	29
0	8646	0.561845579452	30
0	8931	0.587698962794	31
0	9216	0.601106266438	32
0	9501	0.626230429438	33
0	9786	0.637509905467	34
0	10071	0.663905838724	35
0	10356	0.675961022072	36
0	10641	0.700485768038	37
0	10926	0.716715029515	38
0	11211	0.742442055763	39
0	11496	0.761452244636	40
0	11781	0.78691929097	41
0	12058	0.796995624496	42
0	12351	0.826472800732	43
0	12620	0.833579566061	44
0	12921	0.87079694075	45
0	13190	0.87621400853	46
0	13491	0.90792984577	47
0	13772	0.918627516496	48
0	14061	0.943440029116	49
0	14346	0.957396034869	50
0	14631	0.985905374539	51
0	14916	1.002155424329	52
0	15201	1.023323567769	53
0	15486	1.043038595503	54
0	15771	1.062587083143	55
0	16056	1.080265672281	56
0	16341	1.100697007117	57
0	16626	1.117358373068	58
0	16911	1.137737814482	59
0	17196	1.153542691643	60
0	17481	1.179845557099	61
0	17762	1.190645349259	62
0	18051	1.215735518685	63
0	18336	1.235255713094	64
0	18621	1.251374901611	65
0	18906	1.278080242197	66
0	19191	1.296095852964	67
0	19476	1.317577930369	68
0	19761	1.337562332319	69
0	20046	1.354023338969	70
0	20331	1.375230126682	71
0	20616	1.390993818107	72
0	20901	1.414174331557	73
0	21186	1.433801545847	74
0	21471	1.45690852938	75
0	21756	1.476066489528	76
0	22041	1.493377995796	77
0	22326	1.519224730478	78
0	22611	1.537154507511	79
0	22896	1.557186716817	80
0	23181	1.576439660705	81
0	23466	1.597325137475	82
0	23751	1.613514606762	83
0	24036	1.638300133843	84
0	24321	1.653167165549	85
0	24606	1.677851116896	86
0	24891	1.689836285037	87
0	25176	1.714539787686	88
0	25461	1.72886204185	89
0	25746	1.754995847222	90
0	26031	1.771031718211	91
0	26316	1.79710428894	92
0	26601	1.814013632959	93
0	26886	1.841596502753	94
0	27171	1.854798144531	95
0	27456	1.877581513449	96
0	27741	1.892276985188	97
0	28026	1.922045340663	98
0	28307	1.932649477008	99
0	28596	1.966498355997	100
0	28865	1.968613801907	101
0	29166	2.001726416668	102
0	29435	2.005681411027	103
0	29736	2.042920219305	104
0	30005	2.047150028573	105
0	30306	2.085752563689	106
0	30575	2.088444338098	107
0	30876	2.126182441802	108
0	31145	2.133187368457	109
0	31446	2.164811635436	110
0	31731	2.177230069521	111
0	32016	2.200843697021	112
0	32301	2.212678633043	113
0	32586	2.239640142849	114
0	32871	2.255750980513	115
0	33156	2.283409765504	116
0	33441	2.296295593115	117
0	33726	2.327865862439	118
0	34011	2.340939248825	119
0	34296	2.363520560236	120
0	34581	2.38279202051	121
0	34866	2.408288506962	122
0	35151	2.42380432469	123
0	35436	2.44582503466	124
0	35721	2.465854413105	125
0	36006	2.484340109338	126
0	36291	2.509833243012	127
0	36576	2.522752869232	128
0	36861	2.554316317798	129
0	37135	2.564197143078	130
0	37431	2.592260314267	131
0	37716	2.603646340156	132
0	38001	2.632224409712	133
0	38286	2.647780058564	134
0	38571	2.674160346986	135
0	38856	2.692331668807	136
0	39141	2.718746172036	137
0	39426	2.735360455293	138
0	39711	2.763049486407	139
0	39996	2.775069523579	140
0	40281	2.806886555036	141
0	40550	2.815533997125	142
0	40851	2.851101615671	143
0	41120	2.859704825236	144
0	41421	2.887715292102	145
0	41706	2.903720581146	146
0	41991	2.931834232012	147
0	42260	2.939439366535	148
0	42561	2.973878310329	149
0	42830	2.97806125711	150
0	43131	3.01868257959	151
0	43400	3.022219278596	152
0	43706	3.057990643157	153
0	43970	3.059515938279	154
0	44271	3.09347429364	155
0	44540	3.096733248102	156
0	44841	3.129591152812	157
0	45110	3.136020062932	158
0	45411	3.174133562055	159
0	45680	3.180330743894	160
0	45981	3.213212578961	161
0	46266	3.224462339719	162
0	46551	3.252000979951	163
0	46820	3.259912688942	164
0	47121	3.296601573009	165
0	47390	3.29983075355	166
0	47691	3.335050489908	167
0	47960	3.338387407845	168
0	48261	3.376331071893	169
0	48530	3.378765637863	170
0	48831	3.414586501794	171
0	49100	3.420770812794	172
0	49401	3.450619483345	173
0	49686	3.465071001073	174
0	49971	3.495450221812	175
0	50246	3.505425791362	176
0	50541	3.533091618817	177
0	50826	3.549132553194	178
0	51111	3.569688307627	179
0	51396	3.589360894112	180
0	51681	3.608445503649	181
0	51966	3.631009827174	182
0	52251	3.647081949945	183
0	52536	3.669757945521	184
0	52821	3.688989349402	185
0	53106	3.707061723834	186
0	53391	3.730151235559	187
0	53676	3.748889344278	188
0	53961	3.773079156936	189
0	54246	3.786588414608	190
0	54531	3.813930281606	191
0	54816	3.824895437292	192
0	55101	3.852589694276	193
0	55374	3.862353332086	194
0	55671	3.892364610508	195
0	55950	3.902762014642	196
0	56241	3.930426849754	197
0	56520	3.940831001561	198
0	56811	3.967991419138	199
0	57096	3.985119051945	200
0	57381	4.003166949926	201
0	57666	4.026942580017	202
0	57951	4.047800288053	203
0	58236	4.065789977768	204
0	58521	4.08502402561	205
0	58806	4.10558574106	206
0	59091	4.122160007671	207
0	59376	4.144043116167	208
0	59661	4.163633630469	209
0	59946	4.179762727106	210
0	60231	4.20321850641	211
0	60516	4.220365903084	212
0	60801	4.243978284562	213
0	61086	4.258919977287	214
0	61371	4.285784863034	215
0	61656	4.30237751312	216
0	61941	4.323586231553	217
0	62226	4.339847679609	218
0	62511	4.364056917389	219
0	62796	4.379115454127	220
0	63081	4.400954453577	221
0	63366	4.416671451174	222
0	63651	4.445802814832	223
0	63920	4.454906419231	224
0	64221	4.4894977002	225
0	64490	4.498032805358	226
0	64791	4.530262039057	227
0	65076	4.542330084155	228
0	65361	4.574305706443	229
0	65641	4.584741565298	230
0	65931	4.616915347849	231
0	66200	4.624519221816	232
0	66501	4.660192963872	233
0	66770	4.666886602588	234
0	67071	4.696046293331	235
0	67340	4.703359951557	236
0	67641	4.739699055564	237
0	67910	4.742402283961	238
0	68211	4.778762384176	239
0	68480	4.780564457169	240
0	68781	4.815389337051	241
0	69050	4.82074121584	242
0	69351	4.851578752696	243
0	69636	4.864372364671	244
0	69921	4.889541890139	245
0	70206	4.904309486916	246
0	70491	4.925297555744	247
0	70776	4.939406320093	248
0	71061	4.96617913123	249
0	71346	4.982226574722	250
0	71631	5.006139760791	251
0	71916	5.021996646297	252
0	72201	5.045934022704	253
0	72486	5.065881861156	254
0	72771	5.086296156511	255
0	73056	5.104854016342	256
0	73341	5.123609974318	257
0	73626	5.141283505252	258
0	73911	5.161005805805	259
0	74196	5.177020046035	260
0	74481	5.205271727911	261
0	74750	5.212442209652	262
0	75051	5.247385164052	263
0	75320	5.250803587383	264
0	75621	5.287384692701	265
0	75890	5.289044987823	266
0	76191	5.3279202051	267
0	76460	5.329607500222	268
0	76761	5.36346695989	269
0	76963	5.36464030086	270
0	77331	5.40029893587	271
0	77600	5.403133528719	272
0	77901	5.439269122046	273
0	78170	5.444916684484	274
0	78471	5.477784370257	275
0	78740	5.485158193941	276
0	79041	5.520921555574	277
0	79310	5.52800329794	278
0	79611	5.561673994968	279
0	79880	5.566747802251	280
0	80181	5.597066716599	281
0	80450	5.60480153175	282
0	80751	5.63415867677	283
0	81020	5.643378441387	284
0	81321	5.673301012263	285
0	81605	5.684147058486	286
0	81891	5.716236626484	287
0	82160	5.72243408575	288
0	82461	5.754753603238	289
0	82730	5.759064022851	290
0	83031	5.7945773763	291
0	83300	5.799031095213	292
0	83601	5.833206587648	293
0	83870	5.838395410588	294
0	84171	5.87443899276	295
0	84440	5.877290895631	296
0	84741	5.915902648862	297
0	85010	5.917616943984	298
0	85311	5.954172303643	299
0	85580	5.956174471052	300
0	85881	5.996964082296	301
0	86150	5.998867377418	302
0	86456	6.037398574935	303
0	86590	6.038210845233	304
0	87021	6.080285316752	305
0	87290	6.081900601396	306
0	87591	6.119018382991	307
0	87860	6.125175986673	308
0	88161	6.159663499088	309
0	88430	6.163878376969	310
0	88731	6.201287470149	311
0	89000	6.205332668782	312
0	89301	6.246163568129	313
0	89570	6.249646099853	314
0	89871	6.287164727864	315
0	90140	6.293899503168	316
0	90441	6.328768768562	317
0	90710	6.335375594912	318
0	91011	6.36476572858	319
0	91280	6.373256106534	320
0	91581	6.406363987708	321
0	91866	6.418032007653	322
0	92151	6.441919518359	323
0	92436	6.461654548505	324
0	92721	6.483488880064	325
0	93006	6.505253693874	326
0	93291	6.526515445299	327
0	93576	6.546753009776	328
0	93861	6.565450672724	329
0	94146	6.583315834879	330
0	94431	6.60113717365	331
0	94716	6.618859049554	332
0	95001	6.644117819743	333
0	95286	6.660616763528	334
0	95571	6.681830880744	335
0	95856	6.704983562569	336
0	96141	6.720625506994	337
0	96426	6.743106481791	338
0	96711	6.760227205489	339
0	96996	6.785123305332	340
0	97281	6.803806506668	341
0	97566	6.8273828156	342
0	97851	6.840280507673	343
0	98136	6.871545335264	344
0	98421	6.884139701936	345
0	98706	6.911936814858	346
0	98975	6.919770010003	347
0	99276	6.953264787525	348
0	99551	6.96324537335	349
0	99846	6.997341297022	350
0	100115	6.999499821525	351
0	100416	7.033607153033	352
0	100685	7.035786878337	353
0	100986	7.069634699191	354
0	101255	7.074786101502	355
0	101556	7.108492800352	356
0	101825	7.112720379187	357
0	102126	7.15144586814	358
0	102395	7.153097163262	359
0	102696	7.188726148314	360
0	102965	7.193775947778	361
0	103266	7.226846857522	362
0	103546	7.237256577492	363
0	103836	7.261935897508	364
0	104121	7.275355916314	365
0	104406	7.302710295452	366
0	104691	7.315277764451	367
0	104976	7.346150058958	368
0	105261	7.359744205473	369
0	105546	7.384795198839	370
0	105831	7.397242875971	371
0	106116	7.42181243175	372
0	106401	7.43568001798	373
0	106686	7.457942105329	374
0	106971	7.475555966724	375
0	107256	7.496935841624	376
0	107541	7.514740828006	377
0	107826	7.538504406572	378
0	108111	7.557419268672	379
0	108396	7.577761191694	380
0	108681	7.60120978188	381
0	108966	7.619891786707	382
0	109251	7.640833663299	383
0	109536	7.657802244683	384
0	109821	7.685799212098	385
0	110090	7.693453823843	386
0	110391	7.721259757026	387
0	110662	7.730823899832	388
0	110961	7.759436075803	389
0	111230	7.768366116781	390
0	111531	7.802107270173	391
0	111816	7.813219225963	392
0	112101	7.843087846897	393
0	112371	7.852495401409	394
0	112671	7.87854268669	395
0	112956	7.890485071529	396
0	113241	7.919337396023	397
0	113526	7.93275069813	398
0	113811	7.960270514188	399
0	114080	7.967754989395	400
0	114381	8.002546936367	401
0	114650	8.008283162913	402
0	114951	8.043494360536	403
0	115220	8.048720253046	404
0	115521	8.079400242074	405
0	115806	8.093131613693	406
0	116091	8.124141122777	407
0	116373	8.134947394728	408
0	116661	8.161125313803	409
0	116946	8.179634351149	410
0	117231	8.201718974927	411
0	117516	8.215414585477	412
0	117801	8.237620487022	413
0	118086	8.25657661125	414
0	118371	8.274808388772	415
0	118656	8.291805370288	416
0	118941	8.319092735564	417
0	119210	8.327773445259	418
0	119511	8.356469886418	419
0	119780	8.364844278351	420
0	120081	8.394616841439	421
0	120366	8.409208716014	422
0	120651	8.438112617759	423
0	120936	8.450427732373	424
0	121221	8.478531395508	425
0	121506	8.494569203095	426
0	121791	8.522118993362	427
0	122076	8.533843478404	428
0	122361	8.565276214998	429
0	122630	8.571277203861	430
0	122931	8.601286225268	431
0	123200	8.607960575369	432
0	123501	8.637920479497	433
0	123786	8.652554898849	434
0	124071	8.681737794947	435
0	124356	8.693889998252	436
0	124641	8.719366469675	437
0	124926	8.736421500816	438
0	125211	8.75863089619	439
0	125496	8.781115746224	440
0	125781	8.801349328694	441
0	126066	8.824021974306	442
0	126351	8.841007112672	443
0	126636	8.859096746902	444
0	126921	8.88236348088	445
0	127206	8.894362129274	446
0	127491	8.923218221947	447
0	127776	8.938858746796	448
0	128061	8.963131867523	449
0	128346	8.981976757295	450
0	128631	9.005909453641	451
0	128916	9.018852274689	452
0	129201	9.049421446378	453
0	129486	9.06224154481	454
0	129771	9.087934499329	455
0	130056	9.10534620854	456
0	130341	9.127991673648	457
0	130626	9.145121350783	458
0	130911	9.167410927206	459
0	131196	9.184135233258	460
0	131481	9.210008323575	461
0	131766	9.221285260606	462
0	132051	9.253696438175	463
0	132336	9.266115198214	464
0	132621	9.291999839515	465
0	132906	9.308684974161	466
0	133191	9.33378556782	467
0	133476	9.347022479019	468
0	133761	9.369918478688	469
0	134046	9.386756864282	470
0	134331	9.412371215611	471
0	134616	9.429369202388	472
0	134901	9.454401784032	473
0	135186	9.472018086952	474
0	135471	9.491741240375	475
0	135756	9.508924388613	476
0	136041	9.527773722155	477
0	136326	9.550295527657	478
0	136611	9.57098662309	479
0	136896	9.591371155182	480
0	137181	9.607517051073	481
0	137466	9.634960495032	482
0	137751	9.649570049551	483
0	138036	9.677451421358	484
0	138321	9.690147943277	485
0	138606	9.714141667455	486
0	138891	9.732973318021	487
0	139176	9.75661913176	488
0	139461	9.777791626725	489
0	139746	9.792730973853	490
0	140031	9.819930060804	491
0	140316	9.837033222622	492
0	140601	9.860204617138	493
0	140886	9.872318754176	494
0	141171	9.896067504757	495
0	141456	9.916540154081	496
0	141741	9.933104904456	497
0	142026	9.955790349224	498
0	142311	9.968384222713	499
0	142596	9.991187547317	500
1	0	0	0
2	0	0	0
3	0	0	0
3	772	0.0048880203	1
3	1289	0.042862927734	2
3	1657	0.081900222636	3
3	2227	0.11954577875	4
3	3066	0.163992259503	5
3	3636	0.199529513758	6
3	3937	0.237134429771	7
3	4507	0.273499125636	8
3	5346	0.317458184432	9
3	5916	0.355130406436	10
3	6486	0.396501087962	11
3	6787	0.432604785023	12
3	7357	0.467768739844	13
3	7927	0.508644258859	14
3	8497	0.547510316247	15
3	9067	0.588556248416	16
3	9637	0.62699771506	17
3	10207	0.664880124346	18
3	10777	0.70142405366	19
3	11347	0.743146341385	20
3	11917	0.787668576592	21
3	12487	0.827330086354	22
3	13057	0.871618226372	23
3	13627	0.908823131392	24
3	14197	0.944288314738	25
3	14767	0.986816660161	26
3	15337	1.024171853391	27
3	15907	1.063318368765	28
3	16477	1.101500292739	29
3	17047	1.138649100104	30
3	17617	1.180801842721	31
3	18187	1.216538804307	32
3	18757	1.252241187233	33
3	19327	1.296818138586	34
3	19897	1.338419617941	35
3	20467	1.376177412304	36
3	21037	1.415121617179	37
3	21607	1.457729815002	38
3	22177	1.494082281418	39
3	22747	1.537912793133	40
3	23317	1.577287946327	41
3	23887	1.614443892384	42
3	24457	1.654114451171	43
3	25027	1.690621570659	44
3	25597	1.729719327472	45
3	26167	1.771871003833	46
3	26737	1.814861918581	47
3	27307	1.855547430153	48
3	27877	1.89300827081	49
3	28447	1.93354276263	50
3	29001	1.969426087529	51
3	29571	2.006448696649	52
3	30141	2.047935314195	53
3	30711	2.08918462372	54
3	31281	2.134125654079	55
3	31867	2.178186355143	56
3	32437	2.213436918665	57
3	33007	2.256635266135	58
3	33577	2.297215878737	59
3	34147	2.341724534447	60
3	34717	2.383496306132	61
3	35287	2.424661610312	62
3	35857	2.466711698727	63
3	36427	2.510618528634	64
3	36997	2.55509260342	65
3	37567	2.593045599889	66
3	38137	2.633171695334	67
3	38707	2.674918632608	68
3	39277	2.719648457658	69
3	39847	2.763834772029	70
3	40417	2.807815840658	71
3	40987	2.851814901293	72
3	41557	2.888680577724	73
3	42127	2.932583517634	74
3	42697	2.974600595951	75
3	43267	3.019503865212	76
3	43842	3.058730928779	77
3	44407	3.094268579262	78
3	44977	3.130457438434	79
3	45547	3.174936847677	80
3	46117	3.214195864583	81
3	46687	3.252858265573	82
3	47257	3.297485858631	83
3	48096	3.339280693467	84
3	48666	3.379640923485	85
3	49236	3.421583098416	86
3	49822	3.465847286695	87
3	50389	3.506256076984	88
3	50962	3.549962838816	89
3	51532	3.590164179734	90
3	52102	3.631867112796	91
3	52672	3.670732231143	92
3	53242	3.707739009456	93
3	53812	3.7498366299	94
3	54382	3.78747270023	95
3	54952	3.825725722914	96
3	55518	3.863111617708	97
3	56092	3.903556300264	98
3	56662	3.941760287183	99
3	57232	3.986030337567	100
3	57802	4.027664865639	101
3	58372	4.06673726339	102
3	58942	4.106434026682	103
3	59512	4.144900401789	104
3	60082	4.180575012728	105
3	60652	4.221097188706	106
3	61222	4.259642262909	107
3	61792	4.303189798742	108
3	62362	4.340785965231	109
3	62932	4.379810739749	110
3	63502	4.417591736796	111
3	64062	4.455772704853	112
3	64626	4.49890809098	113
3	65212	4.543106369777	114
3	65782	4.58553585092	115
3	66336	4.625376507438	116
3	66906	4.66771688821	117
3	67476	4.704199237179	118
3	68046	4.743340569583	119
3	68616	4.781358742791	120
3	69186	4.821490501462	121
3	69772	4.865094650293	122
3	70342	4.905274772538	123
3	70912	4.940209605715	124
3	71482	4.983101860344	125
3	72052	5.022889931919	126
3	72622	5.066676146778	127
3	73192	5.105675301964	128
3	73762	5.142050790874	129
3	74332	5.177859331657	130
3	74886	5.213416495274	131
3	75456	5.251750873005	132
3	76026	5.289974273445	133
3	76596	5.330590785844	134
3	77166	5.365903586482	135
3	77736	5.403981814341	136
3	78306	5.445791970106	137
3	78876	5.485853479563	138
3	79446	5.528779583562	139
3	80016	5.567506087873	140
3	80586	5.605694817372	141
3	81163	5.644199727009	142
3	81742	5.685004344108	143
3	82296	5.723291371372	144
3	82866	5.759822308473	145
3	83167	5.795434661922	146
3	83737	5.83409087327	147
3	84307	5.875332278382	148
3	85146	5.918438229606	149
3	85716	5.957040756674	150
3	86286	5.99965266304	151
3	86856	6.039853130855	152
3	87426	6.082802887018	153
3	87727	6.119857668613	154
3	88297	6.16044878471	155
3	88867	6.202108755771	156
3	89437	6.247137853751	157
3	90007	6.288049013486	158
3	90577	6.329644054184	159
3	91147	6.365695014202	160
3	91717	6.40723927333	161
3	92287	6.442767803981	162
3	92857	6.484373165686	163
3	93427	6.527237730921	164
3	93997	6.566370958346	165
3	94567	6.602030459272	166
3	95137	6.644993105365	167
3	95707	6.682733166366	168
3	96277	6.721545792616	169
3	96847	6.761174491111	170
3	97417	6.80464579229	171
3	97987	6.841038793295	172
3	98557	6.884996987558	173
3	99111	6.920636295625	174
3	99695	6.964039658972	175
3	100251	7.000348107147	176
3	100821	7.036716163959	177
3	101391	7.075760387124	178
3	101961	7.113568664809	179
3	102267	7.152357153762	180
3	102832	7.189457433936	181
3	103402	7.227596143144	182
3	103972	7.26273918313	183
3	104542	7.303594581074	184
3	105112	7.34703434458	185
3	105682	7.385580484461	186
3	106252	7.422597717372	187
3	106822	7.458898390951	188
3	107392	7.497748127246	189
3	107962	7.539397692194	190
3	108532	7.578627477316	191
3	109102	7.620677072329	192
3	109672	7.658695530305	193
3	110226	7.694374109465	194
3	110805	7.731636185454	195
3	111370	7.769223402403	196
3	111952	7.814004511585	197
3	112514	7.853307687031	198
3	113092	7.891351357151	199
3	113662	7.933553983752	200
3	114216	7.968666275017	201
3	114786	8.009230448535	202
3	115356	8.049541538668	203
3	115942	8.093979899315	204
3	116512	8.13589468035	205
3	117082	8.180473636771	206
3	117652	8.216298871099	207
3	118222	8.257532896872	208
3	118792	8.29267165591	209
3	119350	8.328684730881	210
3	119916	8.365701563973	211
3	120502	8.409958001636	212
3	121072	8.451393017995	213
3	121642	8.495498488717	214
3	122212	8.534709764026	215
3	122766	8.572233489483	216
3	123336	8.608781860991	217
3	123922	8.653439184471	218
3	124492	8.694837283874	219
3	125062	8.737179786438	220
3	125632	8.782009031846	221
3	126202	8.824807259928	222
3	126772	8.860008032524	223
3	127342	8.895273414896	224
3	127912	8.939617032418	225
3	128482	8.982753042917	226
3	129052	9.019646560311	227
3	129622	9.062954830432	228
3	130192	9.106176494162	229
3	130762	9.146050636405	230
3	131332	9.18504651888	231
3	131902	9.222232546228	232
3	132472	9.266828483836	233
3	133042	9.309677259783	234
3	133612	9.347951764641	235
3	134182	9.387668149904	236
3	134752	9.43028048801	237
3	135322	9.473028372574	238
3	135892	9.509898674235	239
3	136462	9.550990813279	240
3	137032	9.592255440804	241
3	137602	9.635646780654	242
3	138172	9.67834470698	243
3	138742	9.714899953077	244
3	139312	9.757503417382	245
3	139882	9.793696259475	246
3	140452	9.837980508244	247
3	141022	9.873203039798	248
3	141592	9.917424439703	249
3	142162	9.956584634846	250
3	142732	9.991945832939	251
4	0	0	0
5	0	0	0
6	0	0	0
6	701	0.004400758724	1
6	1352	0.043376666158	2
6	1922	0.084418922002	3
6	2492	0.122534332043	4
6	2793	0.158608135558	5
6	3363	0.19709965726	6
6	4202	0.238542463317	7
6	4772	0.275710384016	8
6	5078	0.315797627734	9
6	5643	0.351279505624	10
6	6218	0.394705531264	11
6	7052	0.438299952056	12
6	7635	0.477650832695	13
6	8208	0.520862919356	14
6	8778	0.562666603498	15
6	9348	0.601855290484	16
6	9918	0.638357929513	17
6	10488	0.676773046118	18
6	11058	0.717563053561	19
6	11628	0.762156268682	20
6	12198	0.797879648542	21
6	12752	0.834562590107	22
6	13322	0.877008032576	23
6	13908	0.919502540542	24
6	14478	0.958190058915	25
6	15048	1.003066448375	26
6	15618	1.043922619549	27
6	16188	1.081095696327	28
6	16758	1.118332397114	29
6	17328	1.154489715689	30
6	17898	1.191484373305	31
6	18468	1.23613073714	32
6	19038	1.278820266243	33
6	19608	1.318479954415	34
6	20178	1.354790363015	35
6	20748	1.391895842153	36
6	21318	1.434577569893	37
6	21888	1.476833513574	38
6	22458	1.519946754524	39
6	23028	1.558088740863	40
6	23598	1.598218161521	41
6	24168	1.639094157889	42
6	24738	1.678717140942	43
6	25308	1.715252811732	44
6	25878	1.755735871268	45
6	26448	1.797925312986	46
6	27018	1.842552526799	47
6	27588	1.878483537495	48
6	28158	1.922983364709	49
6	28728	1.967328380043	50
6	29298	2.002583440714	51
6	29868	2.043723243351	52
6	30438	2.086627587735	53
6	31008	2.127021465848	54
6	31578	2.165713659482	55
6	32148	2.201619721067	56
6	32718	2.240569166895	57
6	33288	2.28434778955	58
6	33858	2.328605886485	59
6	34428	2.364368584282	60
6	34998	2.409190531008	61
6	35568	2.446610058706	62
6	36138	2.485107133384	63
6	36708	2.523519893278	64
6	37276	2.565054167124	65
6	37848	2.604548364202	66
6	38418	2.64853808261	67
6	38988	2.693143692853	68
6	39558	2.736181479339	69
6	40128	2.775854547625	70
6	40684	2.816391021171	71
6	41252	2.860453849282	72
6	41838	2.904559605192	73
6	42392	2.940278390581	74
6	42962	2.978945281156	75
6	43532	3.022986302642	76
6	44102	3.060228962325	77
6	44672	3.097572272148	78
6	45242	3.136823086978	79
6	45812	3.18107976794	80
6	46398	3.225319363765	81
6	46952	3.260850712988	82
6	47522	3.300525777596	83
6	47823	3.335736513954	84
6	48393	3.377062095939	85
6	48963	3.41547952584	86
6	49533	3.451440507391	87
6	50103	3.496361245858	88
6	50673	3.534020642863	89
6	51243	3.570473331673	90
6	51813	3.609266527695	91
6	52383	3.647785973991	92
6	52953	3.689918373448	93
6	53523	3.731116259605	94
6	54093	3.773954180982	95
6	54663	3.814643305652	96
6	55233	3.853311718322	97
6	55803	3.893230634554	98
6	56373	3.9312118738	99
6	56943	3.968902443184	100
6	57513	4.003924973972	101
6	58083	4.048666312099	102
6	58653	4.085800049656	103
6	59223	4.123026031717	104
6	59793	4.164508654515	105
6	60363	4.204039530456	106
6	60933	4.244808308608	107
6	61503	4.28660588708	108
6	62073	4.324290255599	109
6	62643	4.364733941435	110
6	63213	4.401721477623	111
6	63783	4.446785838878	112
6	64353	4.490345724246	113
6	64923	4.531200063103	114
6	65493	4.575216730489	115
6	66063	4.617709371895	116
6	66633	4.661121987918	117
6	67203	4.696822317377	118
6	67773	4.74043907961	119
6	68343	4.779565408222	120
6	68913	4.816417361097	121
6	69483	4.852552776742	122
6	70053	4.890407914185	123
6	70623	4.92622657979	124
6	71193	4.967036155276	125
6	71763	5.007023784837	126
6	72333	5.04671004675	127
6	72903	5.087144180557	128
6	73473	5.124466998364	129
6	74043	5.161790829851	130
6	74613	5.206155751957	131
6	75183	5.248143188098	132
6	75753	5.288295716747	133
6	76328	5.328795229146	134
6	77095	5.365443324906	135
6	77463	5.401245959916	136
6	78033	5.440090146092	137
6	78603	5.478722394303	138
6	79173	5.52166157962	139
6	79743	5.562558019014	140
6	80313	5.597797740645	141
6	80883	5.635114700816	142
6	81453	5.674140036309	143
6	82023	5.71707565053	144
6	82593	5.755673627284	145
6	83432	5.799915119259	146
6	84002	5.839378434634	147
6	84572	5.878084919677	148
6	84878	5.916750672908	149
6	85443	5.954993327689	150
6	86013	5.997911106342	151
6	86785	6.039374869279	152
6	87221	6.08154855477	153
6	87992	6.125907010719	154
6	88562	6.164591401015	155
6	89132	6.206333692828	156
6	89702	6.250503123899	157
6	90272	6.294720527214	158
6	90842	6.336079618958	159
6	91413	6.37414913058	160
6	91998	6.418907031699	161
6	92568	6.462646572551	162
6	93138	6.50618271792	163
6	93708	6.547673033822	164
6	94278	6.584028858925	165
6	94848	6.6196620736	166
6	95418	6.661455787574	167
6	95988	6.705696586615	168
6	96558	6.743936505837	169
6	97128	6.786151329378	170
6	97698	6.828311839646	171
6	98268	6.87255535931	172
6	98838	6.912757838904	173
6	99408	6.954103811571	174
6	99978	6.998288321068	175
6	100548	7.034464177079	176
6	101118	7.070455723237	177
6	101688	7.109340824398	178
6	102527	7.153936187308	179
6	103097	7.194695971824	180
6	103683	7.238104601538	181
6	104253	7.27625794036	182
6	104823	7.316251788497	183
6	105393	7.360691229519	184
6	105963	7.398135900017	185
6	106533	7.436654042026	186
6	107103	7.47631399077	187
6	107673	7.515570852052	188
6	108243	7.558285292718	189
6	108813	7.602093805926	190
6	109383	7.641834687345	191
6	109953	7.686593236144	192
6	110523	7.722179781072	193
6	111093	7.760347099849	194
6	111663	7.803000294219	195
6	112233	7.843809870943	196
6	112803	7.879354710736	197
6	113373	7.920104420069	198
6	113943	7.961199538234	199
6	114513	8.003439960413	200
6	115083	8.044324384582	201
6	115653	8.08018526612	202
6	116223	8.125043146823	203
6	116793	8.161919337849	204
6	117363	8.202476998973	205
6	117933	8.238450511068	206
6	118503	8.275692412818	207
6	119073	8.31989575961	208
6	119643	8.357290910464	209
6	120213	8.395347865485	210
6	120783	8.439050641805	211
6	121353	8.479505419554	212
6	121923	8.522940017408	213
6	122493	8.566250239044	214
6	123063	8.602224249314	215
6	123633	8.638777503543	216
6	124203	8.682540818993	217
6	124773	8.720295493721	218
6	125343	8.759577920236	219
6	125913	8.80216135274	220
6	126483	8.841936136718	221
6	127053	8.883058504926	222
6	127623	8.924138245993	223
6	128193	8.964141891569	224
6	128763	9.006721477687	225
6	129333	9.050152470424	226
6	129903	9.088764523375	227
6	130473	9.128884697694	228
6	131043	9.168204951252	229
6	131613	9.210829347621	230
6	132183	9.254490462221	231
6	132753	9.292775863561	232
6	133323	9.334570591866	233
6	133893	9.370739502734	234
6	134463	9.413210239657	235
6	135033	9.455213808078	236
6	135603	9.492481264421	237
6	136173	9.528666746201	238
6	136743	9.571825647136	239
6	137313	9.608302075119	240
6	137883	9.650490073597	241
6	138453	9.691031967323	242
6	139023	9.733785342067	243
6	139593	9.778603650771	244
6	140163	9.82066108485	245
6	140733	9.861079641184	246
6	141303	9.896924528803	247
6	141873	9.934051928502	248
6	142443	9.969133246759	249
7	0	0	0
8	0	0	0
9	3	0	1500
9	839	0.040288949215	1500
9	1409	0.08049372402	1500
9	1979	0.118139280134	1500
9	2818	0.162576760887	1500
9	3388	0.197961015142	1500
9	3689	0.235493931155	1500
9	4259	0.27208362702	1500
9	5018	0.315463076087	1500
9	5668	0.35364290782	1500
9	6158	0.394402372772	1500
9	6539	0.431234286407	1500
9	7109	0.466281241228	1500
9	7679	0.507003760243	1500
9	8249	0.545968817631	1500
9	8819	0.5870327498	1500
9	9389	0.625573216444	1500
9	9959	0.66317662573	1500
9	10529	0.699801555044	1500
9	11099	0.741775842769	1500
9	11669	0.786217077976	1500
9	12239	0.825851587738	1500
9	12809	0.870193727756	1500
9	13379	0.907317632776	1500
9	13949	0.942881816122	1500
9	14519	0.985320161545	1500
9	15089	1.022612354775	1500
9	15659	1.061866870149	1500
9	16229	1.100003794123	1500
9	16799	1.137152601488	1500
9	17369	1.179197344105	1500
9	17939	1.215123305691	1500
9	18509	1.250753688617	1500
9	19079	1.29552863997	1500
9	19649	1.336833119325	1500
9	20219	1.374527913688	1500
9	20789	1.413589118563	1500
9	21359	1.456341316386	1500
9	21929	1.492810782802	1500
9	22499	1.536416294517	1500
9	23069	1.575836447711	1500
9	23639	1.612902393768	1500
9	24209	1.652500952555	1500
9	24779	1.689242072043	1500
9	25349	1.728168828856	1500
9	25919	1.770410505217	1500
9	26489	1.813374419965	1500
9	27059	1.854131931537	1500
9	27629	1.891718772194	1500
9	28189	1.932037264014	1500
9	28753	1.967902588913	1500
9	29323	2.005114198033	1500
9	29893	2.046501815579	1500
9	30463	2.087841125104	1500
9	31033	2.132530155463	1500
9	31619	2.176500856527	1500
9	32189	2.212084420049	1500
9	32759	2.255039767519	1500
9	33329	2.295593380121	1500
9	33899	2.340273035831	1500
9	34469	2.382233807516	1500
9	35039	2.423156111696	1500
9	35609	2.465242200111	1500
9	36179	2.509257030018	1500
9	36749	2.553704104804	1500
9	37319	2.591531101273	1500
9	37889	2.631558196718	1500
9	38459	2.673467133992	1500
9	39029	2.718187959042	1500
9	39599	2.762383273413	1500
9	40169	2.806184342042	1500
9	40739	2.850417402677	1500
9	41309	2.887022079108	1500
9	41879	2.931132019018	1500
9	42449	2.973284097335	1500
9	43019	3.018079366596	1500
9	43589	3.057405430163	1500
9	44159	3.092781080646	1500
9	44729	3.128915939818	1500
9	45299	3.173503349061	1500
9	45869	3.212501365967	1500
9	46439	3.251325766957	1500
9	47009	3.295998360015	1500
9	47848	3.337712194851	1500
9	48418	3.378081424869	1500
9	48988	3.4201135998	1500
9	49574	3.464485788079	1500
9	50128	3.504858578368	1500
9	50714	3.5484213402	1500
9	51284	3.588703681118	1500
9	51854	3.63037961418	1500
9	52424	3.669028732527	1500
9	52994	3.70635951084	1500
9	53564	3.748223131284	1500
9	54134	3.785895201614	1500
9	54698	3.824256224298	1500
9	55258	3.861705119092	1500
9	55831	3.902059801648	1500
9	56402	3.940101788567	1500
9	56984	3.984416838951	1500
9	57554	4.026348367023	1500
9	58124	4.065078764774	1500
9	58694	4.104955528066	1500
9	59264	4.143376903173	1500
9	59834	4.179177514112	1500
9	60404	4.21963669009	1500
9	60974	4.258208764293	1500
9	61544	4.301657300126	1500
9	62114	4.339226466615	1500
9	62684	4.378557241133	1500
9	63254	4.41597823818	1500
9	63808	4.454231206237	1500
9	64378	4.497339592364	1500
9	64964	4.541708871161	1500
9	65522	4.584003352304	1500
9	66088	4.623853008822	1500
9	66658	4.666265389594	1500
9	67228	4.702774738563	1500
9	67798	4.741727070967	1500
9	68368	4.779916244175	1500
9	68938	4.820138002846	1500
9	69524	4.863679151677	1500
9	70094	4.903742273922	1500
9	70664	4.938839107099	1500
9	71234	4.981551361728	1500
9	71804	5.021348433303	1500
9	72374	5.065143648162	1500
9	72944	5.104259803348	1500
9	73514	5.140599292258	1500
9	74084	5.176326833041	1500
9	74638	5.211766996658	1500
9	75208	5.250218374389	1500
9	75765	5.288324666575	1500
9	76288	5.328588791983	1500
9	76788	5.363595434138	1500
9	77488	5.402575315725	1500
9	78058	5.44428647149	1500
9	78628	5.484545980947	1500
9	79198	5.527283084946	1500
9	79768	5.566036589257	1500
9	80338	5.604108318756	1500
9	80908	5.642793228393	1500
9	81487	5.683543845492	1500
9	82048	5.721812872756	1500
9	82618	5.758406809857	1500
9	82919	5.794010163306	1500
9	83489	5.832558374654	1500
9	84059	5.873727779766	1500
9	84867	5.91670031904	1500
9	85468	5.955499258058	1500
9	86038	5.998057933357	1500
9	86365	6.03691532404	1500
9	87098	6.080773287449	1500
9	87479	6.118379169997	1500
9	88049	6.159042286094	1500
9	88619	6.200684257155	1500
9	89189	6.245488355135	1500
9	89759	6.28647151487	1500
9	90329	6.328057555568	1500
9	90899	6.364036515586	1500
9	91469	6.405787774714	1500
9	92039	6.441298305365	1500
9	92609	6.48290366707	1500
9	93179	6.525858232305	1500
9	93749	6.56482045973	1500
9	94319	6.600578960656	1500
9	94889	6.643460606749	1500
9	95459	6.68117366775	1500
9	96029	6.719914294	1500
9	96599	6.759605992495	1500
9	97169	6.803239293674	1500
9	97739	6.839713294679	1500
9	98309	6.883446488942	1500
9	98863	6.919067797009	1500
9	99433	6.962561160356	1500
9	100003	6.998788608531	1500
9	100573	7.035111665343	1500
9	101143	7.074155888508	1500
9	101713	7.112117166193	1500
9	102014	7.150851655146	1500
9	102584	7.18803293532	1500
9	103154	7.226189644528	1500
9	103724	7.261278684514	1500
9	104294	7.302125082458	1500
9	104864	7.345429845964	1500
9	105434	7.384173985845	1500
9	106004	7.421110218756	1500
9	106574	7.457257892335	1500
9	107144	7.49630562863	1500
9	107714	7.537802193578	1500
9	108284	7.5770859787	1500
9	108854	7.619261573713	1500
9	109424	7.657244031689	1500
9	109978	7.692841610849	1500
9	110548	7.730130686838	1500
9	111118	7.767708903787	1500
9	111698	7.812499012969	1500
9	112258	7.851757188415	1500
9	112844	7.889809858535	1500
9	113414	7.932147485136	1500
9	113968	7.967196776401	1500
9	114538	8.007616949919	1500
9	115108	8.048027040052	1500
9	115694	8.092483400699	1500
9	116256	8.134299181734	1500
9	116834	8.178896138155	1500
9	117404	8.214847372483	1500
9	117974	8.255865398256	1500
9	118544	8.291193157294	1500
9	119098	8.327035232265	1500
9	119668	8.364223065357	1500
9	120254	8.40860550302	1500
9	120824	8.449689519379	1500
9	121394	8.493947990101	1500
9	121964	8.53321326541	1500
9	122518	8.570592990867	1500
9	123088	8.607366362375	1500
9	123674	8.651951685855	1500
9	124244	8.693169785258	1500
9	124814	8.735764287822	1500
9	125384	8.78055753323	1500
9	125954	8.823355761312	1500
9	126524	8.858484533908	1500
9	127094	8.89364191628	1500
9	127664	8.938201533802	1500
9	128234	8.981382544301	1500
9	128804	9.018159061695	1500
9	129374	9.061602331816	1500
9	129944	9.104697995546	1500
9	130514	9.144464137789	1500
9	131084	9.183478020264	1500
9	131650	9.220574047612	1500
9	132224	9.26543998522	1500
9	132794	9.308117761167	1500
9	133364	9.346302266025	1500
9	133934	9.386180651288	1500
9	134504	9.428648989394	1500
9	135074	9.471387873958	1500
9	135644	9.508249175619	1500
9	136214	9.549602314663	1500
9	136784	9.590749942188	1500
9	137354	9.634276282038	1500
9	137924	9.676884208364	1500
9	138494	9.713547454461	1500
9	139064	9.756060918766	1500
9	139634	9.792082760859	1500
9	140204	9.836331009628	1500
9	140774	9.871607541182	1500
9	141344	9.915945941087	1500
9	141914	9.95521413623	1500
9	142484	9.990566334323	1500
10	4	0	1500
10	907	0.040680445638	1500
10	1678	0.082886772154	1500
10	2248	0.121128182195	1500
10	2549	0.15712098571	1500
10	3119	0.195702507412	1500
10	3958	0.237230410601	1500
10	4528	0.274196234168	1500
10	4829	0.314292477886	1500
10	5399	0.349684355776	1500
10	5969	0.393335381416	1500
10	6808	0.436758802208	1500
10	7378	0.476091682847	1500
10	7964	0.519555769508	1500
10	8534	0.56115245365	1500
10	9104	0.600440140636	1500
10	9670	0.636852779665	1500
10	10244	0.67537589627	1500
10	10814	0.716066903713	1500
10	11384	0.760822118834	1500
10	11940	0.796365498694	1500
10	12508	0.833012440259	1500
10	13078	0.875520882728	1500
10	13654	0.917916390694	1500
10	14234	0.956693909067	1500
10	14804	1.001597298527	1500
10	15374	1.042480469701	1500
10	15944	1.079635546479	1500
10	16514	1.116710247266	1500
10	17084	1.152885565841	1500
10	17646	1.189934223457	1500
10	18224	1.234553587292	1500
10	18794	1.277405116395	1500
10	19364	1.316956804567	1500
10	19934	1.353438213167	1500
10	20504	1.390336692305	1500
10	21074	1.433225420045	1500
10	21644	1.475481363726	1500
10	22214	1.518585604676	1500
10	22784	1.556601591015	1500
10	23354	1.596695011673	1500
10	23924	1.637571008041	1500
10	24494	1.677265991094	1500
10	25064	1.713864661884	1500
10	25634	1.75430272142	1500
10	26204	1.796465163138	1500
10	26774	1.841002376951	1500
10	27344	1.876852387647	1500
10	27914	1.921442214861	1500
10	28484	1.965895230195	1500
10	29054	2.001051290866	1500
10	29624	2.042236093503	1500
10	30194	2.085068437887	1500
10	30764	2.125615316	1500
10	31334	2.164100509634	1500
10	31904	2.200159571219	1500
10	32474	2.238902017047	1500
10	33044	2.282761639702	1500
10	33614	2.327163736637	1500
10	34184	2.362872434434	1500
10	34754	2.40755038116	1500
10	35324	2.445266908858	1500
10	35894	2.483601983536	1500
10	36464	2.52208674343	1500
10	37018	2.563477017276	1500
10	37603	2.603079214354	1500
10	38174	2.647140932762	1500
10	38744	2.691629543005	1500
10	39314	2.734766329491	1500
10	39884	2.774376397777	1500
10	40438	2.814822871323	1500
10	41008	2.859020699434	1500
10	41594	2.903099455344	1500
10	42148	2.938710240733	1500
10	42718	2.977332131308	1500
10	43288	3.021589152794	1500
10	43624	3.057557192316	1500
10	44428	3.0960761223	1500
10	44998	3.13539893713	1500
10	45568	3.179763618092	1500
10	46150	3.223751213917	1500
10	46708	3.25933656314	1500
10	47278	3.299173627748	1500
10	47579	3.334393364106	1500
10	48149	3.375646946091	1500
10	48719	3.413857375992	1500
10	49289	3.449890357543	1500
10	49859	3.49481109601	1500
10	50429	3.532461493015	1500
10	50999	3.568995181825	1500
10	51569	3.607878377847	1500
10	52139	3.646523824143	1500
10	52709	3.6883412236	1500
10	53279	3.729431109757	1500
10	53849	3.772458031134	1500
10	54419	3.813210155804	1500
10	54989	3.851977568474	1500
10	55559	3.891806484706	1500
10	56129	3.929814723952	1500
10	56699	3.967280293336	1500
10	57269	4.002527824124	1500
10	57839	4.047071162251	1500
10	58409	4.084402899808	1500
10	58979	4.121556881869	1500
10	59549	4.162931504667	1500
10	60119	4.202498380608	1500
10	60689	4.24324915876	1500
10	61259	4.285190737232	1500
10	61829	4.323019105751	1500
10	62399	4.363345791587	1500
10	62969	4.400243327775	1500
10	63539	4.44521768903	1500
10	64109	4.488885574398	1500
10	64679	4.529640913255	1500
10	65249	4.573639580641	1500
10	65819	4.616213222047	1500
10	66389	4.65948183807	1500
10	66959	4.695479167529	1500
10	67529	4.739113929762	1500
10	68099	4.778033258374	1500
10	68669	4.814831211249	1500
10	69239	4.851011626894	1500
10	69809	4.888812764337	1500
10	70379	4.924568429942	1500
10	70949	4.965477005428	1500
10	71519	5.005545634989	1500
10	72089	5.045303896902	1500
10	72659	5.085702030709	1500
10	73229	5.123015848516	1500
10	73799	5.160339680003	1500
10	74369	5.204551602109	1500
10	74939	5.24682703825	1500
10	75509	5.286664566899	1500
10	76079	5.327245079298	1500
10	76649	5.362755834088	1500
10	77219	5.399614810068	1500
10	77789	5.438593996244	1500
10	78359	5.477136244455	1500
10	78929	5.520210429772	1500
10	79499	5.560944869166	1500
10	80069	5.596508590797	1500
10	80639	5.633519550968	1500
10	81209	5.672643886461	1500
10	81779	5.715561500682	1500
10	82349	5.754060477436	1500
10	83188	5.798382969411	1500
10	83758	5.837738284786	1500
10	84328	5.876633769829	1500
10	84629	5.91530852306	1500
10	85199	5.953542177841	1500
10	85769	5.996315956494	1500
10	86339	6.036804449133	1500
10	86909	6.07963719095	1500
10	87748	6.124563860871	1500
10	88318	6.163140251167	1500
10	88888	6.20460354298	1500
10	89458	6.249087974051	1500
10	90028	6.293251377366	1500
10	90598	6.33463746911	1500
10	91168	6.372643980732	1500
10	91754	6.417473881851	1500
10	92324	6.460925422703	1500
10	92894	6.504596568072	1500
10	93464	6.546086883974	1500
10	94034	6.582622709077	1500
10	94604	6.618273923752	1500
10	95174	6.659932637726	1500
10	95744	6.704425436767	1500
10	96314	6.742458355989	1500
10	96884	6.78453817953	1500
10	97454	6.826806689798	1500
10	98024	6.870978209462	1500
10	98594	6.911378689056	1500
10	99164	6.952553661723	1500
10	99734	6.99667517122	1500
10	100304	7.032896027231	1500
10	100874	7.068914573389	1500
10	101444	7.10788067455	1500
10	102216	7.15196605769	1500
10	102853	7.193118821976	1500
10	103427	7.23659945169	1500
10	104009	7.274797790512	1500
10	104579	7.314539638649	1500
10	105149	7.359105079671	1500
10	105719	7.396630750169	1500
10	106289	7.435085892178	1500
10	106859	7.474943840922	1500
10	107429	7.514074702204	1500
10	107999	7.55678014287	1500
10	108569	7.600534656078	1500
10	109139	7.640230537497	1500
10	109709	7.685214086296	1500
10	110279	7.720638631224	1500
10	110849	7.758814950001	1500
10	111419	7.801504144371	1500
10	111989	7.842385721095	1500
10	112559	7.877849560888	1500
10	113129	7.918761270221	1500
10	113699	7.959658388386	1500
10	114269	8.001979810565	1500
10	114839	8.042891234734	1500
10	115409	8.078734116272	1500
10	115979	8.123420996975	1500
10	116549	8.160396188001	1500
10	117119	8.201016849125	1500
10	117689	8.23694536122	1500
10	118259	8.27416026297	1500
10	118829	8.318399609762	1500
10	119399	8.355875760616	1500
10	119969	8.393977715637	1500
10	120539	8.437428491957	1500
10	121109	8.477946269706	1500
10	121679	8.52143486756	1500
10	122249	8.564619089196	1500
10	122819	8.600692099466	1500
10	123389	8.637236353695	1500
10	123959	8.681107669145	1500
10	124529	8.718673343873	1500
10	125099	8.757991770388	1500
10	125669	8.800674202892	1500
10	126239	8.84032298687	1500
10	126809	8.881625355078	1500
10	127379	8.922543096145	1500
10	127949	8.962420741721	1500
10	128519	9.005261327839	1500
10	129089	9.048809320576	1500
10	129659	9.087223373527	1500
10	130229	9.127343547846	1500
10	130799	9.166789801404	1500
10	131369	9.209342197773	1500
10	131939	9.252994312373	1500
10	132509	9.291360713713	1500
10	133079	9.333083442018	1500
10	133649	9.369207352886	1500
10	134219	9.411768089809	1500
10	134789	9.45378065823	1500
10	135359	9.491129114573	1500
10	135929	9.527053596353	1500
10	136499	9.570293497288	1500
10	137069	9.606832925271	1500
10	137639	9.648975923749	1500
10	138209	9.689436817475	1500
10	138779	9.732352192219	1500
10	139349	9.777053500923	1500
10	139919	9.819263935002	1500
10	140489	9.859628491336	1500
10	141059	9.895329378955	1500
10	141629	9.932528778654	1500
10	142199	9.967781096911	1500
11	6	0	1508
11	840	0.040288949215	1508
11	1410	0.08049372402	1508
11	1980	0.118139280134	1508
11	2819	0.162576760887	1508
11	3389	0.197961015142	1508
11	3690	0.235493931155	1508
11	4260	0.27208362702	1508
11	5019	0.315463076087	1508
11	5669	0.35364290782	1508
11	6159	0.394402372772	1508
11	6540	0.431234286407	1508
11	7110	0.466281241228	1508
11	7680	0.507003760243	1508
11	8250	0.545968817631	1508
11	8820	0.5870327498	1508
11	9390	0.625573216444	1508
11	9960	0.66317662573	1508
11	10530	0.699801555044	1508
11	11100	0.741775842769	1508
11	11670	0.786217077976	1508
11	12240	0.825851587738	1508
11	12810	0.870193727756	1508
11	13380	0.907317632776	1508
11	13950	0.942881816122	1508
11	14520	0.985320161545	1508
11	15090	1.022612354775	1508
11	15660	1.061866870149	1508
11	16230	1.100003794123	1508
11	16800	1.137152601488	1508
11	17370	1.179197344105	1508
11	17940	1.215123305691	1508
11	18510	1.250753688617	1508
11	19080	1.29552863997	1508
11	19650	1.336833119325	1508
11	20220	1.374527913688	1508
11	20790	1.413589118563	1508
11	21360	1.456341316386	1508
11	21930	1.492810782802	1508
11	22500	1.536416294517	1508
11	23070	1.575836447711	1508
11	23640	1.612902393768	1508
11	24210	1.652500952555	1508
11	24780	1.689242072043	1508
11	25350	1.728168828856	1508
11	25920	1.770410505217	1508
11	26490	1.813374419965	1508
11	27060	1.854131931537	1508
11	27630	1.891718772194	1508
11	28190	1.932037264014	1508
11	28754	1.967902588913	1508
11	29324	2.005114198033	1508
11	29894	2.046501815579	1508
11	30464	2.087841125104	1508
11	31034	2.132530155463	1508
11	31620	2.176500856527	1508
11	32190	2.212084420049	1508
11	32760	2.255039767519	1508
11	33330	2.295593380121	1508
11	33900	2.340273035831	1508
11	34470	2.382233807516	1508
11	35040	2.423156111696	1508
11	35610	2.465242200111	1508
11	36180	2.509257030018	1508
11	36750	2.553704104804	1508
11	37320	2.591531101273	1508
11	37890	2.631558196718	1508
11	38460	2.673467133992	1508
11	39030	2.718187959042	1508
11	39600	2.762383273413	1508
11	40170	2.806184342042	1508
11	40740	2.850417402677	1508
11	41310	2.887022079108	1508
11	41880	2.931132019018	1508
11	42450	2.973284097335	1508
11	43020	3.018079366596	1508
11	43590	3.057405430163	1508
11	44160	3.092781080646	1508
11	44730	3.128915939818	1508
11	45300	3.173503349061	1508
11	45870	3.212501365967	1508
11	46440	3.251325766957	1508
11	47010	3.295998360015	1508
11	47849	3.337712194851	1508
11	48419	3.378081424869	1508
11	48989	3.4201135998	1508
11	49575	3.464485788079	1508
11	50129	3.504858578368	1508
11	50715	3.5484213402	1508
11	51285	3.588703681118	1508
11	51855	3.63037961418	1508
11	52425	3.669028732527	1508
11	52995	3.70635951084	1508
11	53565	3.748223131284	1508
11	54135	3.785895201614	1508
11	54699	3.824256224298	1508
11	55259	3.861705119092	1508
11	55832	3.902059801648	1508
11	56403	3.940101788567	1508
11	56985	3.984416838951	1508
11	57555	4.026348367023	1508
11	58125	4.065078764774	1508
11	58695	4.104955528066	1508
11	59265	4.143376903173	1508
11	59835	4.179177514112	1508
11	60405	4.21963669009	1508
11	60975	4.258208764293	1508
11	61545	4.301657300126	1508
11	62115	4.339226466615	1508
11	62685	4.378557241133	1508
11	63255	4.41597823818	1508
11	63809	4.454231206237	1508
11	64379	4.497339592364	1508
11	64965	4.541708871161	1508
11	65523	4.584003352304	1508
11	66089	4.623853008822	1508
11	66659	4.666265389594	1508
11	67229	4.702774738563	1508
11	67799	4.741727070967	1508
11	68369	4.779916244175	1508
11	68939	4.820138002846	1508
11	69525	4.863679151677	1508
11	70095	4.903742273922	1508
11	70665	4.938839107099	1508
11	71235	4.981551361728	1508
11	71805	5.021348433303	1508
11	72375	5.065143648162	1508
11	72945	5.104259803348	1508
11	73515	5.140599292258	1508
11	74085	5.176326833041	1508
11	74639	5.211766996658	1508
11	75209	5.250218374389	1508
11	75766	5.288324666575	1508
11	76289	5.328588791983	1508
11	76789	5.363595434138	1508
11	77489	5.402575315725	1508
11	78059	5.44428647149	1508
11	78629	5.484545980947	1508
11	79199	5.527283084946	1508
11	79769	5.566036589257	1508
11	80339	5.604108318756	1508
11	80909	5.642793228393	1508
11	81488	5.683543845492	1508
11	82049	5.721812872756	1508
11	82619	5.758406809857	1508
11	82920	5.794010163306	1508
11	83490	5.832558374654	1508
11	84060	5.873727779766	1508
11	84868	5.91670031904	1508
11	85469	5.955499258058	1508
11	86039	5.998057933357	1508
11	86366	6.03691532404	1508
11	87099	6.080773287449	1508
11	87480	6.118379169997	1508
11	88050	6.159042286094	1508
11	88620	6.200684257155	1508
11	89190	6.245488355135	1508
11	89760	6.28647151487	1508
11	90330	6.328057555568	1508
11	90900	6.364036515586	1508
11	91470	6.405787774714	1508
11	92040	6.441298305365	1508
11	92610	6.48290366707	1508
11	93180	6.525858232305	1508
11	93750	6.56482045973	1508
11	94320	6.600578960656	1508
11	94890	6.643460606749	1508
11	95460	6.68117366775	1508
11	96030	6.719914294	1508
11	96600	6.759605992495	1508
11	97170	6.803239293674	1508
11	97740	6.839713294679	1508
11	98310	6.883446488942	1508
11	98864	6.919067797009	1508
11	99434	6.962561160356	1508
11	100004	6.998788608531	1508
11	100574	7.035111665343	1508
11	101144	7.074155888508	1508
11	101714	7.112117166193	1508
11	102015	7.150851655146	1508
11	102585	7.18803293532	1508
11	103155	7.226189644528	1508
11	103725	7.261278684514	1508
11	104295	7.302125082458	1508
11	104865	7.345429845964	1508
11	105435	7.384173985845	1508
11	106005	7.421110218756	1508
11	106575	7.457257892335	1508
11	107145	7.49630562863	1508
11	107715	7.537802193578	1508
11	108285	7.5770859787	1508
11	108855	7.619261573713	1508
11	109425	7.657244031689	1508
11	109979	7.692841610849	1508
11	110549	7.730130686838	1508
11	111119	7.767708903787	1508
11	111699	7.812499012969	1508
11	112259	7.851757188415	1508
11	112845	7.889809858535	1508
11	113415	7.932147485136	1508
11	113969	7.967196776401	1508
11	114539	8.007616949919	1508
11	115109	8.048027040052	1508
11	115695	8.092483400699	1508
11	116257	8.134299181734	1508
11	116835	8.178896138155	1508
11	117405	8.214847372483	1508
11	117975	8.255865398256	1508
11	118545	8.291193157294	1508
11	119099	8.327035232265	1508
11	119669	8.364223065357	1508
11	120255	8.40860550302	1508
11	120825	8.449689519379	1508
11	121395	8.493947990101	1508
11	121965	8.53321326541	1508
11	122519	8.570592990867	1508
11	123089	8.607366362375	1508
11	123675	8.651951685855	1508
11	124245	8.693169785258	1508
11	124815	8.735764287822	1508
11	125385	8.78055753323	1508
11	125955	8.823355761312	1508
11	126525	8.858484533908	1508
11	127095	8.89364191628	1508
11	127665	8.938201533802	1508
11	128235	8.981382544301	1508
11	128805	9.018159061695	1508
11	129375	9.061602331816	1508
11	129945	9.104697995546	1508
11	130515	9.144464137789	1508
11	131085	9.183478020264	1508
11	131651	9.220574047612	1508
11	132225	9.26543998522	1508
11	132795	9.308117761167	1508
11	133365	9.346302266025	1508
11	133935	9.386180651288	1508
11	134505	9.428648989394	1508
11	135075	9.471387873958	1508
11	135645	9.508249175619	1508
11	136215	9.549602314663	1508
11	136785	9.590749942188	1508
11	137355	9.634276282038	1508
11	137925	9.676884208364	1508
11	138495	9.713547454461	1508
11	139065	9.756060918766	1508
11	139635	9.792082760859	1508
11	140205	9.836331009628	1508
11	140775	9.871607541182	1508
11	141345	9.915945941087	1508
11	141915	9.95521413623	1508
11	142485	9.990566334323	1508
12	8	0	1508
12	908	0.040680445638	1508
12	1679	0.082886772154	1508
12	2249	0.121128182195	1508
12	2550	0.15712098571	1508
12	3120	0.195702507412	1508
12	3959	0.237230410601	1508
12	4529	0.274196234168	1508
12	4830	0.314292477886	1508
12	5400	0.349684355776	1508
12	5970	0.393335381416	1508
12	6809	0.436758802208	1508
12	7379	0.476091682847	1508
12	7965	0.519555769508	1508
12	8535	0.56115245365	1508
12	9105	0.600440140636	1508
12	9671	0.636852779665	1508
12	10245	0.67537589627	1508
12	10815	0.716066903713	1508
12	11385	0.760822118834	1508
12	11941	0.796365498694	1508
12	12509	0.833012440259	1508
12	13079	0.875520882728	1508
12	13655	0.917916390694	1508
12	14235	0.956693909067	1508
12	14805	1.001597298527	1508
12	15375	1.042480469701	1508
12	15945	1.079635546479	1508
12	16515	1.116710247266	1508
12	17085	1.152885565841	1508
12	17647	1.189934223457	1508
12	18225	1.234553587292	1508
12	18795	1.277405116395	1508
12	19365	1.316956804567	1508
12	19935	1.353438213167	1508
12	20505	1.390336692305	1508
12	21075	1.433225420045	1508
12	21645	1.475481363726	1508
12	22215	1.518585604676	1508
12	22785	1.556601591015	1508
12	23355	1.596695011673	1508
12	23925	1.637571008041	1508
12	24495	1.677265991094	1508
12	25065	1.713864661884	1508
12	25635	1.75430272142	1508
12	26205	1.796465163138	1508
12	26775	1.841002376951	1508
12	27345	1.876852387647	1508
12	27915	1.921442214861	1508
12	28485	1.965895230195	1508
12	29055	2.001051290866	1508
12	29625	2.042236093503	1508
12	30195	2.085068437887	1508
12	30765	2.125615316	1508
12	31335	2.164100509634	1508
12	31905	2.200159571219	1508
12	32475	2.238902017047	1508
12	33045	2.282761639702	1508
12	33615	2.327163736637	1508
12	34185	2.362872434434	1508
12	34755	2.40755038116	1508
12	35325	2.445266908858	1508
12	35895	2.483601983536	1508
12	36465	2.52208674343	1508
12	37019	2.563477017276	1508
12	37604	2.603079214354	1508
12	38175	2.647140932762	1508
12	38745	2.691629543005	1508
12	39315	2.734766329491	1508
12	39885	2.774376397777	1508
12	40439	2.814822871323	1508
12	41009	2.859020699434	1508
12	41595	2.903099455344	1508
12	42149	2.938710240733	1508
12	42719	2.977332131308	1508
12	43289	3.021589152794	1508
12	43625	3.057557192316	1508
12	44429	3.0960761223	1508
12	44999	3.13539893713	1508
12	45569	3.179763618092	1508
12	46151	3.223751213917	1508
12	46709	3.25933656314	1508
12	47279	3.299173627748	1508
12	47580	3.334393364106	1508
12	48150	3.375646946091	1508
12	48720	3.413857375992	1508
12	49290	3.449890357543	1508
12	49860	3.49481109601	1508
12	50430	3.532461493015	1508
12	51000	3.568995181825	1508
12	51570	3.607878377847	1508
12	52140	3.646523824143	1508
12	52710	3.6883412236	1508
12	53280	3.729431109757	1508
12	53850	3.772458031134	1508
12	54420	3.813210155804	1508
12	54990	3.851977568474	1508
12	55560	3.891806484706	1508
12	56130	3.929814723952	1508
12	56700	3.967280293336	1508
12	57270	4.002527824124	1508
12	57840	4.047071162251	1508
12	58410	4.084402899808	1508
12	58980	4.121556881869	1508
12	59550	4.162931504667	1508
12	60120	4.202498380608	1508
12	60690	4.24324915876	1508
12	61260	4.285190737232	1508
12	61830	4.323019105751	1508
12	62400	4.363345791587	1508
12	62970	4.400243327775	1508
12	63540	4.44521768903	1508
12	64110	4.488885574398	1508
12	64680	4.529640913255	1508
12	65250	4.573639580641	1508
12	65820	4.616213222047	1508
12	66390	4.65948183807	1508
12	66960	4.695479167529	1508
12	67530	4.739113929762	1508
12	68100	4.778033258374	1508
12	68670	4.814831211249	1508
12	69240	4.851011626894	1508
12	69810	4.888812764337	1508
12	70380	4.924568429942	1508
12	70950	4.965477005428	1508
12	71520	5.005545634989	1508
12	72090	5.045303896902	1508
12	72660	5.085702030709	1508
12	73230	5.123015848516	1508
12	73800	5.160339680003	1508
12	74370	5.204551602109	1508
12	74940	5.24682703825	1508
12	75510	5.286664566899	1508
12	76080	5.327245079298	1508
12	76650	5.362755834088	1508
12	77220	5.399614810068	1508
12	77790	5.438593996244	1508
12	78360	5.477136244455	1508
12	78930	5.520210429772	1508
12	79500	5.560944869166	1508
12	80070	5.596508590797	1508
12	80640	5.633519550968	1508
12	81210	5.672643886461	1508
12	81780	5.715561500682	1508
12	82350	5.754060477436	1508
12	83189	5.798382969411	1508
12	83759	5.837738284786	1508
12	84329	5.876633769829	1508
12	84630	5.91530852306	1508
12	85200	5.953542177841	1508
12	85770	5.996315956494	1508
12	86340	6.036804449133	1508
12	86910	6.07963719095	1508
12	87749	6.124563860871	1508
12	88319	6.163140251167	1508
12	88889	6.20460354298	1508
12	89459	6.249087974051	1508
12	90029	6.293251377366	1508
12	90599	6.33463746911	1508
12	91169	6.372643980732	1508
12	91755	6.417473881851	1508
12	92325	6.460925422703	1508
12	92895	6.504596568072	1508
12	93465	6.546086883974	1508
12	94035	6.582622709077	1508
12	94605	6.618273923752	1508
12	95175	6.659932637726	1508
12	95745	6.704425436767	1508
12	96315	6.742458355989	1508
12	96885	6.78453817953	1508
12	97455	6.826806689798	1508
12	98025	6.870978209462	1508
12	98595	6.911378689056	1508
12	99165	6.952553661723	1508
12	99735	6.99667517122	1508
12	100305	7.032896027231	1508
12	100875	7.068914573389	1508
12	101445	7.10788067455	1508
12	102217	7.15196605769	1508
12	102854	7.193118821976	1508
12	103428	7.23659945169	1508
12	104010	7.274797790512	1508
12	104580	7.314539638649	1508
12	105150	7.359105079671	1508
12	105720	7.396630750169	1508
12	106290	7.435085892178	1508
12	106860	7.474943840922	1508
12	107430	7.514074702204	1508
12	108000	7.55678014287	1508
12	108570	7.600534656078	1508
12	109140	7.640230537497	1508
12	109710	7.685214086296	1508
12	110280	7.720638631224	1508
12	110850	7.758814950001	1508
12	111420	7.801504144371	1508
12	111990	7.842385721095	1508
12	112560	7.877849560888	1508
12	113130	7.918761270221	1508
12	113700	7.959658388386	1508
12	114270	8.001979810565	1508
12	114840	8.042891234734	1508
12	115410	8.078734116272	1508
12	115980	8.123420996975	1508
12	116550	8.160396188001	1508
12	117120	8.201016849125	1508
12	117690	8.23694536122	1508
12	118260	8.27416026297	1508
12	118830	8.318399609762	1508
12	119400	8.355875760616	1508
12	119970	8.393977715637	1508
12	120540	8.437428491957	1508
12	121110	8.477946269706	1508
12	121680	8.52143486756	1508
12	122250	8.564619089196	1508
12	122820	8.600692099466	1508
12	123390	8.637236353695	1508
12	123960	8.681107669145	1508
12	124530	8.718673343873	1508
12	125100	8.757991770388	1508
12	125670	8.800674202892	1508
12	126240	8.84032298687	1508
12	126810	8.881625355078	1508
12	127380	8.922543096145	1508
12	127950	8.962420741721	1508
12	128520	9.005261327839	1508
12	129090	9.048809320576	1508
12	129660	9.087223373527	1508
12	130230	9.127343547846	1508
12	130800	9.166789801404	1508
12	131370	9.209342197773	1508
12	131940	9.252994312373	1508
12	132510	9.291360713713	1508
12	133080	9.333083442018	1508
12	133650	9.369207352886	1508
12	134220	9.411768089809	1508
12	134790	9.45378065823	1508
12	135360	9.491129114573	1508
12	135930	9.527053596353	1508
12	136500	9.570293497288	1508
12	137070	9.606832925271	1508
12	137640	9.648975923749	1508
12	138210	9.689436817475	1508
12	138780	9.732352192219	1508
12	139350	9.777053500923	1508
12	139920	9.819263935002	1508
12	140490	9.859628491336	1508
12	141060	9.895329378955	1508
12	141630	9.932528778654	1508
12	142200	9.967781096911	1508
13	9	0	28
14	10	0	28
15	97	0.000564269102	28
15	120	0.000730269102	28
16	435	0.002767734678	1508
16	506	0.003101734678	1508
16	1019	0.04135557144	1508
16	1153	0.042104642112	1508
16	1521	0.081213937014	1508
16	1790	0.083498897956	1508
16	2091	0.118778493128	1508
16	2360	0.121713307997	1508
16	2661	0.157805111512	1508
16	2930	0.163233973881	1508
16	3231	0.196287633214	1508
16	3500	0.198654228136	1508
16	3801	0.236169144149	1508
16	4070	0.237829439271	1508
16	4371	0.272659840014	1508
16	4640	0.27489835997	1508
16	4941	0.315012603688	1508
16	5210	0.31650189881	1508
16	5511	0.350404481578	1508
16	5780	0.354291120814	1508
16	6081	0.394037507218	1508
16	6350	0.39558980234	1508
16	6651	0.431819499401	1508
16	6920	0.43738892801	1508
16	7221	0.466866454222	1508
16	7495	0.476766808649	1508
16	7791	0.507705973237	1508
16	8076	0.52012289531	1508
16	8361	0.546644030625	1508
16	8646	0.561845579452	1508
16	8931	0.587698962794	1508
16	9216	0.601106266438	1508
16	9501	0.626230429438	1508
16	9786	0.637509905467	1508
16	10071	0.663905838724	1508
16	10356	0.675961022072	1508
16	10641	0.700485768038	1508
16	10926	0.716715029515	1508
16	11211	0.742442055763	1508
16	11496	0.761452244636	1508
16	11781	0.78691929097	1508
16	12058	0.796995624496	1508
16	12351	0.826472800732	1508
16	12620	0.833579566061	1508
16	12921	0.87079694075	1508
16	13190	0.87621400853	1508
16	13491	0.90792984577	1508
16	13772	0.918627516496	1508
16	14061	0.943440029116	1508
16	14346	0.957396034869	1508
16	14631	0.985905374539	1508
16	14916	1.002155424329	1508
16	15201	1.023323567769	1508
16	15486	1.043038595503	1508
16	15771	1.062587083143	1508
16	16056	1.080265672281	1508
16	16341	1.100697007117	1508
16	16626	1.117358373068	1508
16	16911	1.137737814482	1508
16	17196	1.153542691643	1508
16	17481	1.179845557099	1508
16	17762	1.190645349259	1508
16	18051	1.215735518685	1508
16	18336	1.235255713094	1508
16	18621	1.251374901611	1508
16	18906	1.278080242197	1508
16	19191	1.296095852964	1508
16	19476	1.317577930369	1508
16	19761	1.337562332319	1508
16	20046	1.354023338969	1508
16	20331	1.375230126682	1508
16	20616	1.390993818107	1508
16	20901	1.414174331557	1508
16	21186	1.433801545847	1508
16	21471	1.45690852938	1508
16	21756	1.476066489528	1508
16	22041	1.493377995796	1508
16	22326	1.519224730478	1508
16	22611	1.537154507511	1508
16	22896	1.557186716817	1508
16	23181	1.576439660705	1508
16	23466	1.597325137475	1508
16	23751	1.613514606762	1508
16	24036	1.638300133843	1508
16	24321	1.653167165549	1508
16	24606	1.677851116896	1508
16	24891	1.689836285037	1508
16	25176	1.714539787686	1508
16	25461	1.72886204185	1508
16	25746	1.754995847222	1508
16	26031	1.771031718211	1508
16	26316	1.79710428894	1508
16	26601	1.814013632959	1508
16	26886	1.841596502753	1508
16	27171	1.854798144531	1508
16	27456	1.877581513449	1508
16	27741	1.892276985188	1508
16	28026	1.922045340663	1508
16	28307	1.932649477008	1508
16	28596	1.966498355997	1508
16	28865	1.968613801907	1508
16	29166	2.001726416668	1508
16	29435	2.005681411027	1508
16	29736	2.042920219305	1508
16	30005	2.047150028573	1508
16	30306	2.085752563689	1508
16	30575	2.088444338098	1508
16	30876	2.126182441802	1508
16	31145	2.133187368457	1508
16	31446	2.164811635436	1508
16	31731	2.177230069521	1508
16	32016	2.200843697021	1508
16	32301	2.212678633043	1508
16	32586	2.239640142849	1508
16	32871	2.255750980513	1508
16	33156	2.283409765504	1508
16	33441	2.296295593115	1508
16	33726	2.327865862439	1508
16	34011	2.340939248825	1508
16	34296	2.363520560236	1508
16	34581	2.38279202051	1508
16	34866	2.408288506962	1508
16	35151	2.42380432469	1508
16	35436	2.44582503466	1508
16	35721	2.465854413105	1508
16	36006	2.484340109338	1508
16	36291	2.509833243012	1508
16	36576	2.522752869232	1508
16	36861	2.554316317798	1508
16	37135	2.564197143078	1508
16	37431	2.592260314267	1508
16	37716	2.603646340156	1508
16	38001	2.632224409712	1508
16	38286	2.647780058564	1508
16	38571	2.674160346986	1508
16	38856	2.692331668807	1508
16	39141	2.718746172036	1508
16	39426	2.735360455293	1508
16	39711	2.763049486407	1508
16	39996	2.775069523579	1508
16	40281	2.806886555036	1508
16	40550	2.815533997125	1508
16	40851	2.851101615671	1508
16	41120	2.859704825236	1508
16	41421	2.887715292102	1508
16	41706	2.903720581146	1508
16	41991	2.931834232012	1508
16	42260	2.939439366535	1508
16	42561	2.973878310329	1508
16	42830	2.97806125711	1508
16	43131	3.01868257959	1508
16	43400	3.022219278596	1508
16	43706	3.057990643157	1508
16	43970	3.059515938279	1508
16	44271	3.09347429364	1508
16	44540	3.096733248102	1508
16	44841	3.129591152812	1508
16	45110	3.136020062932	1508
16	45411	3.174133562055	1508
16	45680	3.180330743894	1508
16	45981	3.213212578961	1508
16	46266	3.224462339719	1508
16	46551	3.252000979951	1508
16	46820	3.259912688942	1508
16	47121	3.296601573009	1508
16	47390	3.29983075355	1508
16	47691	3.335050489908	1508
16	47960	3.338387407845	1508
16	48261	3.376331071893	1508
16	48530	3.378765637863	1508
16	48831	3.414586501794	1508
16	49100	3.420770812794	1508
16	49401	3.450619483345	1508
16	49686	3.465071001073	1508
16	49971	3.495450221812	1508
16	50246	3.505425791362	1508
16	50541	3.533091618817	1508
16	50826	3.549132553194	1508
16	51111	3.569688307627	1508
16	51396	3.589360894112	1508
16	51681	3.608445503649	1508
16	51966	3.631009827174	1508
16	52251	3.647081949945	1508
16	52536	3.669757945521	1508
16	52821	3.688989349402	1508
16	53106	3.707061723834	1508
16	53391	3.730151235559	1508
16	53676	3.748889344278	1508
16	53961	3.773079156936	1508
16	54246	3.786588414608	1508
16	54531	3.813930281606	1508
16	54816	3.824895437292	1508
16	55101	3.852589694276	1508
16	55374	3.862353332086	1508
16	55671	3.892364610508	1508
16	55950	3.902762014642	1508
16	56241	3.930426849754	1508
16	56520	3.940831001561	1508
16	56811	3.967991419138	1508
16	57096	3.985119051945	1508
16	57381	4.003166949926	1508
16	57666	4.026942580017	1508
16	57951	4.047800288053	1508
16	58236	4.065789977768	1508
16	58521	4.08502402561	1508
16	58806	4.10558574106	1508
16	59091	4.122160007671	1508
16	59376	4.144043116167	1508
16	59661	4.163633630469	1508
16	59946	4.179762727106	1508
16	60231	4.20321850641	1508
16	60516	4.220365903084	1508
16	60801	4.243978284562	1508
16	61086	4.258919977287	1508
16	61371	4.285784863034	1508
16	61656	4.30237751312	1508
16	61941	4.323586231553	1508
16	62226	4.339847679609	1508
16	62511	4.364056917389	1508
16	62796	4.379115454127	1508
16	63081	4.400954453577	1508
16	63366	4.416671451174	1508
16	63651	4.445802814832	1508
16	63920	4.454906419231	1508
16	64221	4.4894977002	1508
16	64490	4.498032805358	1508
16	64791	4.530262039057	1508
16	65076	4.542330084155	1508
16	65361	4.574305706443	1508
16	65641	4.584741565298	1508
16	65931	4.616915347849	1508
16	66200	4.624519221816	1508
16	66501	4.660192963872	1508
16	66770	4.666886602588	1508
16	67071	4.696046293331	1508
16	67340	4.703359951557	1508
16	67641	4.739699055564	1508
16	67910	4.742402283961	1508
16	68211	4.778762384176	1508
16	68480	4.780564457169	1508
16	68781	4.815389337051	1508
16	69050	4.82074121584	1508
16	69351	4.851578752696	1508
16	69636	4.864372364671	1508
16	69921	4.889541890139	1508
16	70206	4.904309486916	1508
16	70491	4.925297555744	1508
16	70776	4.939406320093	1508
16	71061	4.96617913123	1508
16	71346	4.982226574722	1508
16	71631	5.006139760791	1508
16	71916	5.021996646297	1508
16	72201	5.045934022704	1508
16	72486	5.065881861156	1508
16	72771	5.086296156511	1508
16	73056	5.104854016342	1508
16	73341	5.123609974318	1508
16	73626	5.141283505252	1508
16	73911	5.161005805805	1508
16	74196	5.177020046035	1508
16	74481	5.205271727911	1508
16	74750	5.212442209652	1508
16	75051	5.247385164052	1508
16	75320	5.250803587383	1508
16	75621	5.287384692701	1508
16	75890	5.289044987823	1508
16	76191	5.3279202051	1508
16	76460	5.329607500222	1508
16	76761	5.36346695989	1508
16	76963	5.36464030086	1508
16	77331	5.40029893587	1508
16	77600	5.403133528719	1508
16	77901	5.439269122046	1508
16	78170	5.444916684484	1508
16	78471	5.477784370257	1508
16	78740	5.485158193941	1508
16	79041	5.520921555574	1508
16	79310	5.52800329794	1508
16	79611	5.561673994968	1508
16	79880	5.566747802251	1508
16	80181	5.597066716599	1508
16	80450	5.60480153175	1508
16	80751	5.63415867677	1508
16	81020	5.643378441387	1508
16	81321	5.673301012263	1508
16	81605	5.684147058486	1508
16	81891	5.716236626484	1508
16	82160	5.72243408575	1508
16	82461	5.754753603238	1508
16	82730	5.759064022851	1508
16	83031	5.7945773763	1508
16	83300	5.799031095213	1508
16	83601	5.833206587648	1508
16	83870	5.838395410588	1508
16	84171	5.87443899276	1508
16	84440	5.877290895631	1508
16	84741	5.915902648862	1508
16	85010	5.917616943984	1508
16	85311	5.954172303643	1508
16	85580	5.956174471052	1508
16	85881	5.996964082296	1508
16	86150	5.998867377418	1508
16	86456	6.037398574935	1508
16	86590	6.038210845233	1508
16	87021	6.080285316752	1508
16	87290	6.081900601396	1508
16	87591	6.119018382991	1508
16	87860	6.125175986673	1508
16	88161	6.159663499088	1508
16	88430	6.163878376969	1508
16	88731	6.201287470149	1508
16	89000	6.205332668782	1508
16	89301	6.246163568129	1508
16	89570	6.249646099853	1508
16	89871	6.287164727864	1508
16	90140	6.293899503168	1508
16	90441	6.328768768562	1508
16	90710	6.335375594912	1508
16	91011	6.36476572858	1508
16	91280	6.373256106534	1508
16	91581	6.406363987708	1508
16	91866	6.418032007653	1508
16	92151	6.441919518359	1508
16	92436	6.461654548505	1508
16	92721	6.483488880064	1508
16	93006	6.505253693874	1508
16	93291	6.526515445299	1508
16	93576	6.546753009776	1508
16	93861	6.565450672724	1508
16	94146	6.583315834879	1508
16	94431	6.60113717365	1508
16	94716	6.618859049554	1508
16	95001	6.644117819743	1508
16	95286	6.660616763528	1508
16	95571	6.681830880744	1508
16	95856	6.704983562569	1508
16	96141	6.720625506994	1508
16	96426	6.743106481791	1508
16	96711	6.760227205489	1508
16	96996	6.785123305332	1508
16	97281	6.803806506668	1508
16	97566	6.8273828156	1508
16	97851	6.840280507673	1508
16	98136	6.871545335264	1508
16	98421	6.884139701936	1508
16	98706	6.911936814858	1508
16	98975	6.919770010003	1508
16	99276	6.953264787525	1508
16	99551	6.96324537335	1508
16	99846	6.997341297022	1508
16	100115	6.999499821525	1508
16	100416	7.033607153033	1508
16	100685	7.035786878337	1508
16	100986	7.069634699191	1508
16	101255	7.074786101502	1508
16	101556	7.108492800352	1508
16	101825	7.112720379187	1508
16	102126	7.15144586814	1508
16	102395	7.153097163262	1508
16	102696	7.188726148314	1508
16	102965	7.193775947778	1508
16	103266	7.226846857522	1508
16	103546	7.237256577492	1508
16	103836	7.261935897508	1508
16	104121	7.275355916314	1508
16	104406	7.302710295452	1508
16	104691	7.315277764451	1508
16	104976	7.346150058958	1508
16	105261	7.359744205473	1508
16	105546	7.384795198839	1508
16	105831	7.397242875971	1508
16	106116	7.42181243175	1508
16	106401	7.43568001798	1508
16	106686	7.457942105329	1508
16	106971	7.475555966724	1508
16	107256	7.496935841624	1508
16	107541	7.514740828006	1508
16	107826	7.538504406572	1508
16	108111	7.557419268672	1508
16	108396	7.577761191694	1508
16	108681	7.60120978188	1508
16	108966	7.619891786707	1508
16	109251	7.640833663299	1508
16	109536	7.657802244683	1508
16	109821	7.685799212098	1508
16	110090	7.693453823843	1508
16	110391	7.721259757026	1508
16	110662	7.730823899832	1508
16	110961	7.759436075803	1508
16	111230	7.768366116781	1508
16	111531	7.802107270173	1508
16	111816	7.813219225963	1508
16	112101	7.843087846897	1508
16	112371	7.852495401409	1508
16	112671	7.87854268669	1508
16	112956	7.890485071529	1508
16	113241	7.919337396023	1508
16	113526	7.93275069813	1508
16	113811	7.960270514188	1508
16	114080	7.967754989395	1508
16	114381	8.002546936367	1508
16	114650	8.008283162913	1508
16	114951	8.043494360536	1508
16	115220	8.048720253046	1508
16	115521	8.079400242074	1508
16	115806	8.093131613693	1508
16	116091	8.124141122777	1508
16	116373	8.134947394728	1508
16	116661	8.161125313803	1508
16	116946	8.179634351149	1508
16	117231	8.201718974927	1508
16	117516	8.215414585477	1508
16	117801	8.237620487022	1508
16	118086	8.25657661125	1508
16	118371	8.274808388772	1508
16	118656	8.291805370288	1508
16	118941	8.319092735564	1508
16	119210	8.327773445259	1508
16	119511	8.356469886418	1508
16	119780	8.364844278351	1508
16	120081	8.394616841439	1508
16	120366	8.409208716014	1508
16	120651	8.438112617759	1508
16	120936	8.450427732373	1508
16	121221	8.478531395508	1508
16	121506	8.494569203095	1508
16	121791	8.522118993362	1508
16	122076	8.533843478404	1508
16	122361	8.565276214998	1508
16	122630	8.571277203861	1508
16	122931	8.601286225268	1508
16	123200	8.607960575369	1508
16	123501	8.637920479497	1508
16	123786	8.652554898849	1508
16	124071	8.681737794947	1508
16	124356	8.693889998252	1508
16	124641	8.719366469675	1508
16	124926	8.736421500816	1508
16	125211	8.75863089619	1508
16	125496	8.781115746224	1508
16	125781	8.801349328694	1508
16	126066	8.824021974306	1508
16	126351	8.841007112672	1508
16	126636	8.859096746902	1508
16	126921	8.88236348088	1508
16	127206	8.894362129274	1508
16	127491	8.923218221947	1508
16	127776	8.938858746796	1508
16	128061	8.963131867523	1508
16	128346	8.981976757295	1508
16	128631	9.005909453641	1508
16	128916	9.018852274689	1508
16	129201	9.049421446378	1508
16	129486	9.06224154481	1508
16	129771	9.087934499329	1508
16	130056	9.10534620854	1508
16	130341	9.127991673648	1508
16	130626	9.145121350783	1508
16	130911	9.167410927206	1508
16	131196	9.184135233258	1508
16	131481	9.210008323575	1508
16	131766	9.221285260606	1508
16	132051	9.253696438175	1508
16	132336	9.266115198214	1508
16	132621	9.291999839515	1508
16	132906	9.308684974161	1508
16	133191	9.33378556782	1508
16	133476	9.347022479019	1508
16	133761	9.369918478688	1508
16	134046	9.386756864282	1508
16	134331	9.412371215611	1508
16	134616	9.429369202388	1508
16	134901	9.454401784032	1508
16	135186	9.472018086952	1508
16	135471	9.491741240375	1508
16	135756	9.508924388613	1508
16	136041	9.527773722155	1508
16	136326	9.550295527657	1508
16	136611	9.57098662309	1508
16	136896	9.591371155182	1508
16	137181	9.607517051073	1508
16	137466	9.634960495032	1508
16	137751	9.649570049551	1508
16	138036	9.677451421358	1508
16	138321	9.690147943277	1508
16	138606	9.714141667455	1508
16	138891	9.732973318021	1508
16	139176	9.75661913176	1508
16	139461	9.777791626725	1508
16	139746	9.792730973853	1508
16	140031	9.819930060804	1508
16	140316	9.837033222622	1508
16	140601	9.860204617138	1508
16	140886	9.872318754176	1508
16	141171	9.896067504757	1508
16	141456	9.916540154081	1508
16	141741	9.933104904456	1508
16	142026	9.955790349224	1508
16	142311	9.968384222713	1508
16	142596	9.991187547317	1508
17	436	0.002767734678	1500
17	507	0.003101734678	1500
17	1020	0.04135557144	1500
17	1154	0.042104642112	1500
17	1522	0.081213937014	1500
17	1791	0.083498897956	1500
17	2092	0.118778493128	1500
17	2361	0.121713307997	1500
17	2662	0.157805111512	1500
17	2931	0.163233973881	1500
17	3232	0.196287633214	1500
17	3501	0.198654228136	1500
17	3802	0.236169144149	1500
17	4071	0.237829439271	1500
17	4372	0.272659840014	1500
17	4641	0.27489835997	1500
17	4942	0.315012603688	1500
17	5211	0.31650189881	1500
17	5512	0.350404481578	1500
17	5781	0.354291120814	1500
17	6082	0.394037507218	1500
17	6351	0.39558980234	1500
17	6652	0.431819499401	1500
17	6921	0.43738892801	1500
17	7222	0.466866454222	1500
17	7496	0.476766808649	1500
17	7792	0.507705973237	1500
17	8077	0.52012289531	1500
17	8362	0.546644030625	1500
17	8647	0.561845579452	1500
17	8932	0.587698962794	1500
[...]
25	11348	0.743146341385	0.001370498616
25	11918	0.787668576592	0.001451498616
25	12488	0.827330086354	0.001478498616
25	13058	0.871618226372	0.001424498616
25	13628	0.908823131392	0.001505498616
25	14198	0.944288314738	0.001406498616
25	14768	0.986816660161	0.001496498616
25	15338	1.024171853391	0.001559498616
25	15908	1.063318368765	0.001451498616
25	16478	1.101500292739	0.001496498616
25	17048	1.138649100104	0.001496498616
25	17618	1.180801842721	0.001604498616
25	18188	1.216538804307	0.001415498616
25	18758	1.252241187233	0.001487498616
25	19328	1.296818138586	0.001289498616
25	19898	1.338419617941	0.001586498616
25	20468	1.376177412304	0.001649498616
25	21038	1.415121617179	0.001532498616
25	21608	1.457729815002	0.001388498616
25	22178	1.494082281418	0.001271498616
25	22748	1.537912793133	0.001496498616
25	23318	1.577287946327	0.001451498616
25	23888	1.614443892384	0.001541498616
25	24458	1.654114451171	0.001613498616
25	25028	1.690621570659	0.001379498616
25	25598	1.729719327472	0.001550498616
25	26168	1.771871003833	0.001460498616
25	26738	1.814861918581	0.001487498616
25	27308	1.855547430153	0.001415498616
25	27878	1.89300827081	0.001289498616
25	28448	1.93354276263	0.001505498616
25	29002	1.969426087529	0.001523498616
25	29572	2.006448696649	0.001334498616
25	30142	2.047935314195	0.001433498616
25	30712	2.08918462372	0.001343498616
25	31282	2.134125654079	0.001595498616
25	31868	2.178186355143	0.001685498616
25	32438	2.213436918665	0.001352498616
25	33008	2.256635266135	0.001595498616
25	33578	2.297215878737	0.001622498616
25	34148	2.341724534447	0.001451498616
25	34718	2.383496306132	0.001262498616
25	35288	2.424661610312	0.001505498616
25	35858	2.466711698727	0.001469498616
25	36428	2.510618528634	0.001361498616
25	36998	2.55509260342	0.001388498616
25	37568	2.593045599889	0.001514498616
25	38138	2.633171695334	0.001613498616
25	38708	2.674918632608	0.001451498616
25	39278	2.719648457658	0.001460498616
25	39848	2.763834772029	0.001451498616
25	40418	2.807815840658	0.001631498616
25	40988	2.851814901293	0.001397498616
25	41558	2.888680577724	0.001658498616
25	42128	2.932583517634	0.001451498616
25	42698	2.974600595951	0.001316498616
25	43268	3.019503865212	0.001424498616
25	43843	3.058730928779	0.001325498616
25	44408	3.094268579262	0.001487498616
25	44978	3.130457438434	0.001541498616
25	45548	3.174936847677	0.001433498616
25	46118	3.214195864583	0.001694498616
25	46688	3.252858265573	0.001532498616
25	47258	3.297485858631	0.001487498616
25	48097	3.339280693467	0.001568498616
25	48667	3.379640923485	0.001559498616
25	49237	3.421583098416	0.001469498616
25	49823	3.465847286695	0.001361498616
25	50390	3.506256076984	0.001397498616
25	50963	3.549962838816	0.001541498616
25	51533	3.590164179734	0.001460498616
25	52103	3.631867112796	0.001487498616
25	52673	3.670732231143	0.001703498616
25	53243	3.707739009456	0.001379498616
25	53813	3.7498366299	0.001613498616
25	54383	3.78747270023	0.001577498616
25	54953	3.825725722914	0.001469498616
25	55519	3.863111617708	0.001406498616
25	56093	3.903556300264	0.001496498616
25	56663	3.941760287183	0.001658498616
25	57233	3.986030337567	0.001613498616
25	57803	4.027664865639	0.001316498616
25	58373	4.06673726339	0.001658498616
25	58943	4.106434026682	0.001478498616
25	59513	4.144900401789	0.001523498616
25	60083	4.180575012728	0.001397498616
25	60653	4.221097188706	0.001460498616
25	61223	4.259642262909	0.001433498616
25	61793	4.303189798742	0.001532498616
25	62363	4.340785965231	0.001559498616
25	62933	4.379810739749	0.001253498616
25	63503	4.417591736796	0.001613498616
25	64063	4.455772704853	0.001541498616
25	64627	4.49890809098	0.001568498616
25	65213	4.543106369777	0.001397498616
25	65783	4.58553585092	0.001532498616
25	66337	4.625376507438	0.001523498616
25	66907	4.66771688821	0.001451498616
25	67477	4.704199237179	0.001424498616
25	68047	4.743340569583	0.001613498616
25	68617	4.781358742791	0.001442498616
25	69187	4.821490501462	0.001352498616
25	69773	4.865094650293	0.001415498616
25	70343	4.905274772538	0.001532498616
25	70913	4.940209605715	0.001370498616
25	71483	4.983101860344	0.001550498616
25	72053	5.022889931919	0.001541498616
25	72623	5.066676146778	0.001532498616
25	73193	5.105675301964	0.001415498616
25	73763	5.142050790874	0.001451498616
25	74333	5.177859331657	0.001532498616
25	74887	5.213416495274	0.001649498616
25	75457	5.251750873005	0.001532498616
25	76027	5.289974273445	0.00164960687
25	76597	5.330590785844	0.002001993861
25	77167	5.365903586482	0.002308152344
25	77737	5.403981814341	0.001406498616
25	78307	5.445791970106	0.001505498616
25	78877	5.485853479563	0.001307498616
25	79447	5.528779583562	0.001496498616
25	80017	5.567506087873	0.001469498616
25	80587	5.605694817372	0.001586498616
25	81164	5.644199727009	0.001406498616
25	81743	5.685004344108	0.001460498616
25	82297	5.723291371372	0.001478498616
25	82867	5.759822308473	0.001415498616
25	83168	5.795434661922	0.001424498616
25	83738	5.83409087327	0.001532498616
25	84308	5.875332278382	0.001604498616
25	85147	5.918438229606	0.001737910566
25	85717	5.957040756674	0.001541498616
25	86287	5.99965266304	0.001594729683
25	86857	6.039853130855	0.002937806815
25	87427	6.082802887018	0.002029599569
25	87728	6.119857668613	0.001478498616
25	88298	6.16044878471	0.001406498616
25	88868	6.202108755771	0.001424498616
25	89438	6.247137853751	0.001649498616
25	90008	6.288049013486	0.001577498616
25	90578	6.329644054184	0.001586498616
25	91148	6.365695014202	0.001658498616
25	91718	6.40723927333	0.001451498616
25	92288	6.442767803981	0.001469498616
25	92858	6.484373165686	0.001469498616
25	93428	6.527237730921	0.001379498616
25	93998	6.566370958346	0.001550498616
25	94568	6.602030459272	0.001451498616
25	95138	6.644993105365	0.001532498616
25	95708	6.682733166366	0.001559498616
25	96278	6.721545792616	0.001631498616
25	96848	6.761174491111	0.001568498616
25	97418	6.80464579229	0.001406498616
25	97988	6.841038793295	0.001325498616
25	98558	6.884996987558	0.001550498616
25	99112	6.920636295625	0.001568498616
25	99696	6.964039658972	0.001478498616
25	100252	7.000348107147	0.001559498616
25	100822	7.036716163959	0.001604498616
25	101392	7.075760387124	0.001604498616
25	101962	7.113568664809	0.001451498616
25	102268	7.152357153762	0.001505498616
25	102833	7.189457433936	0.001424498616
25	103403	7.227596143144	0.001406498616
25	103973	7.26273918313	0.001460498616
25	104543	7.303594581074	0.001469498616
25	105113	7.34703434458	0.001604498616
25	105683	7.385580484461	0.001406498616
25	106253	7.422597717372	0.001487498616
25	106823	7.458898390951	0.001640498616
25	107393	7.497748127246	0.001442498616
25	107963	7.539397692194	0.001595498616
25	108533	7.578627477316	0.001541498616
25	109103	7.620677072329	0.001415498616
25	109673	7.658695530305	0.001451498616
25	110227	7.694374109465	0.001532498616
25	110806	7.731636185454	0.001505498616
25	111371	7.769223402403	0.001514498616
25	111953	7.814004511585	0.001505498616
25	112515	7.853307687031	0.001550498616
25	113093	7.891351357151	0.001541498616
25	113663	7.933553983752	0.001406498616
25	114217	7.968666275017	0.001469498616
25	114787	8.009230448535	0.001613498616
25	115357	8.049541538668	0.001514498616
25	115943	8.093979899315	0.001496498616
25	116513	8.13589468035	0.001595498616
25	117083	8.180473636771	0.001577498616
25	117653	8.216298871099	0.001451498616
25	118223	8.257532896872	0.001667498616
25	118793	8.29267165591	0.001478498616
25	119351	8.328684730881	0.001649498616
25	119917	8.365701563973	0.001478498616
25	120503	8.409958001636	0.001352498616
25	121073	8.451393017995	0.001703498616
25	121643	8.495498488717	0.001550498616
25	122213	8.534709764026	0.001496498616
25	122767	8.572233489483	0.001640498616
25	123337	8.608781860991	0.001415498616
25	123923	8.653439184471	0.001487498616
25	124493	8.694837283874	0.001667498616
25	125063	8.737179786438	0.001415498616
25	125633	8.782009031846	0.001451498616
25	126203	8.824807259928	0.001451498616
25	126773	8.860008032524	0.001523498616
25	127343	8.895273414896	0.001631498616
25	127913	8.939617032418	0.001415498616
25	128483	8.982753042917	0.001370498616
25	129053	9.019646560311	0.001487498616
25	129623	9.062954830432	0.001352498616
25	130193	9.106176494162	0.001478498616
25	130763	9.146050636405	0.001586498616
25	131333	9.18504651888	0.001568498616
25	131903	9.222232546228	0.001658498616
25	132473	9.266828483836	0.001388498616
25	133043	9.309677259783	0.001559498616
25	133613	9.347951764641	0.001649498616
25	134183	9.387668149904	0.001487498616
25	134753	9.43028048801	0.001631498616
25	135323	9.473028372574	0.001640498616
25	135893	9.509898674235	0.001649498616
25	136463	9.550990813279	0.001388498616
25	137033	9.592255440804	0.001505498616
25	137603	9.635646780654	0.001370498616
25	138173	9.67834470698	0.001460498616
25	138743	9.714899953077	0.001352498616
25	139313	9.757503417382	0.001442498616
25	139883	9.793696259475	0.001613498616
25	140453	9.837980508244	0.001649498616
25	141023	9.873203039798	0.001595498616
25	141593	9.917424439703	0.001478498616
25	142163	9.956584634846	0.001370498616
25	142733	9.991945832939	0.001379498616
26	773	0.0048880203	0
26	1290	0.042862927734	1
26	1658	0.081900222636	2
26	2228	0.11954577875	3
26	3067	0.163992259503	4
26	3637	0.199529513758	5
26	3938	0.237134429771	6
26	4508	0.273499125636	7
26	5347	0.317458184432	8
26	5917	0.355130406436	9
26	6487	0.396501087962	10
26	6788	0.432604785023	11
26	7358	0.467768739844	12
26	7928	0.508644258859	13
26	8498	0.547510316247	14
26	9068	0.588556248416	15
26	9638	0.62699771506	16
26	10208	0.664880124346	17
26	10778	0.70142405366	18
26	11348	0.743146341385	19
26	11918	0.787668576592	20
26	12488	0.827330086354	21
26	13058	0.871618226372	22
26	13628	0.908823131392	23
26	14198	0.944288314738	24
26	14768	0.986816660161	25
26	15338	1.024171853391	26
26	15908	1.063318368765	27
26	16478	1.101500292739	28
26	17048	1.138649100104	29
26	17618	1.180801842721	30
26	18188	1.216538804307	31
26	18758	1.252241187233	32
26	19328	1.296818138586	33
26	19898	1.338419617941	34
26	20468	1.376177412304	35
26	21038	1.415121617179	36
26	21608	1.457729815002	37
26	22178	1.494082281418	38
26	22748	1.537912793133	39
26	23318	1.577287946327	40
26	23888	1.614443892384	41
26	24458	1.654114451171	42
26	25028	1.690621570659	43
26	25598	1.729719327472	44
26	26168	1.771871003833	45
26	26738	1.814861918581	46
26	27308	1.855547430153	47
26	27878	1.89300827081	48
26	28448	1.93354276263	49
26	29002	1.969426087529	50
26	29572	2.006448696649	51
26	30142	2.047935314195	52
26	30712	2.08918462372	53
26	31282	2.134125654079	54
26	31868	2.178186355143	55
26	32438	2.213436918665	56
26	33008	2.256635266135	57
26	33578	2.297215878737	58
26	34148	2.341724534447	59
26	34718	2.383496306132	60
26	35288	2.424661610312	61
26	35858	2.466711698727	62
26	36428	2.510618528634	63
26	36998	2.55509260342	64
26	37568	2.593045599889	65
26	38138	2.633171695334	66
26	38708	2.674918632608	67
26	39278	2.719648457658	68
26	39848	2.763834772029	69
26	40418	2.807815840658	70
26	40988	2.851814901293	71
26	41558	2.888680577724	72
26	42128	2.932583517634	73
26	42698	2.974600595951	74
26	43268	3.019503865212	75
26	43843	3.058730928779	76
26	44408	3.094268579262	77
26	44978	3.130457438434	78
26	45548	3.174936847677	79
26	46118	3.214195864583	80
26	46688	3.252858265573	81
26	47258	3.297485858631	82
26	48097	3.339280693467	83
26	48667	3.379640923485	84
26	49237	3.421583098416	85
26	49823	3.465847286695	86
26	50390	3.506256076984	87
26	50963	3.549962838816	88
26	51533	3.590164179734	89
26	52103	3.631867112796	90
26	52673	3.670732231143	91
26	53243	3.707739009456	92
26	53813	3.7498366299	93
26	54383	3.78747270023	94
26	54953	3.825725722914	95
26	55519	3.863111617708	96
26	56093	3.903556300264	97
26	56663	3.941760287183	98
26	57233	3.986030337567	99
26	57803	4.027664865639	100
26	58373	4.06673726339	101
26	58943	4.106434026682	102
26	59513	4.144900401789	103
26	60083	4.180575012728	104
26	60653	4.221097188706	105
26	61223	4.259642262909	106
26	61793	4.303189798742	107
26	62363	4.340785965231	108
26	62933	4.379810739749	109
26	63503	4.417591736796	110
26	64063	4.455772704853	111
26	64627	4.49890809098	112
26	65213	4.543106369777	113
26	65783	4.58553585092	114
26	66337	4.625376507438	115
26	66907	4.66771688821	116
26	67477	4.704199237179	117
26	68047	4.743340569583	118
26	68617	4.781358742791	119
26	69187	4.821490501462	120
26	69773	4.865094650293	121
26	70343	4.905274772538	122
26	70913	4.940209605715	123
26	71483	4.983101860344	124
26	72053	5.022889931919	125
26	72623	5.066676146778	126
26	73193	5.105675301964	127
26	73763	5.142050790874	128
26	74333	5.177859331657	129
26	74887	5.213416495274	130
26	75457	5.251750873005	131
26	76027	5.289974273445	132
26	76597	5.330590785844	133
26	77167	5.365903586482	134
26	77737	5.403981814341	135
26	78307	5.445791970106	136
26	78877	5.485853479563	137
26	79447	5.528779583562	138
26	80017	5.567506087873	139
26	80587	5.605694817372	140
26	81164	5.644199727009	141
26	81743	5.685004344108	142
26	82297	5.723291371372	143
26	82867	5.759822308473	144
26	83168	5.795434661922	145
26	83738	5.83409087327	146
26	84308	5.875332278382	147
26	85147	5.918438229606	148
26	85717	5.957040756674	149
26	86287	5.99965266304	150
26	86857	6.039853130855	151
26	87427	6.082802887018	152
26	87728	6.119857668613	153
26	88298	6.16044878471	154
26	88868	6.202108755771	155
26	89438	6.247137853751	156
26	90008	6.288049013486	157
26	90578	6.329644054184	158
26	91148	6.365695014202	159
26	91718	6.40723927333	160
26	92288	6.442767803981	161
26	92858	6.484373165686	162
26	93428	6.527237730921	163
26	93998	6.566370958346	164
26	94568	6.602030459272	165
26	95138	6.644993105365	166
26	95708	6.682733166366	167
26	96278	6.721545792616	168
26	96848	6.761174491111	169
26	97418	6.80464579229	170
26	97988	6.841038793295	171
26	98558	6.884996987558	172
26	99112	6.920636295625	173
26	99696	6.964039658972	174
26	100252	7.000348107147	175
26	100822	7.036716163959	176
26	101392	7.075760387124	177
26	101962	7.113568664809	178
26	102268	7.152357153762	179
26	102833	7.189457433936	180
26	103403	7.227596143144	181
26	103973	7.26273918313	182
26	104543	7.303594581074	183
26	105113	7.34703434458	184
26	105683	7.385580484461	185
26	106253	7.422597717372	186
26	106823	7.458898390951	187
26	107393	7.497748127246	188
26	107963	7.539397692194	189
26	108533	7.578627477316	190
26	109103	7.620677072329	191
26	109673	7.658695530305	192
26	110227	7.694374109465	193
26	110806	7.731636185454	194
26	111371	7.769223402403	195
26	111953	7.814004511585	196
26	112515	7.853307687031	197
26	113093	7.891351357151	198
26	113663	7.933553983752	199
26	114217	7.968666275017	200
26	114787	8.009230448535	201
26	115357	8.049541538668	202
26	115943	8.093979899315	203
26	116513	8.13589468035	204
26	117083	8.180473636771	205
26	117653	8.216298871099	206
26	118223	8.257532896872	207
26	118793	8.29267165591	208
26	119351	8.328684730881	209
26	119917	8.365701563973	210
26	120503	8.409958001636	211
26	121073	8.451393017995	212
26	121643	8.495498488717	213
26	122213	8.534709764026	214
26	122767	8.572233489483	215
26	123337	8.608781860991	216
26	123923	8.653439184471	217
26	124493	8.694837283874	218
26	125063	8.737179786438	219
26	125633	8.782009031846	220
26	126203	8.824807259928	221
26	126773	8.860008032524	222
26	127343	8.895273414896	223
26	127913	8.939617032418	224
26	128483	8.982753042917	225
26	129053	9.019646560311	226
26	129623	9.062954830432	227
26	130193	9.106176494162	228
26	130763	9.146050636405	229
26	131333	9.18504651888	230
26	131903	9.222232546228	231
26	132473	9.266828483836	232
26	133043	9.309677259783	233
26	133613	9.347951764641	234
26	134183	9.387668149904	235
26	134753	9.43028048801	236
26	135323	9.473028372574	237
26	135893	9.509898674235	238
26	136463	9.550990813279	239
26	137033	9.592255440804	240
26	137603	9.635646780654	241
26	138173	9.67834470698	242
26	138743	9.714899953077	243
26	139313	9.757503417382	244
26	139883	9.793696259475	245
26	140453	9.837980508244	246
26	141023	9.873203039798	247
26	141593	9.917424439703	248
26	142163	9.956584634846	249
26	142733	9.991945832939	250
27	56944	3.968902443184	-198968.75961554
27	58654	4.068902443184	240000
27	60364	4.168902443184	360000
27	61504	4.268902443184	240000
27	63214	4.368902443184	360000
27	64354	4.468902443184	240000
27	65494	4.568902443184	240000
27	67204	4.668902443184	360000
27	68344	4.768902443184	240000
27	70054	4.868902443184	360000
27	71764	4.968902443184	360000
27	72904	5.068902443184	240000
27	74614	5.168902443184	360000
27	75754	5.268902443184	240000
27	77464	5.368902443184	360000
27	78604	5.468902443184	240000
27	80314	5.568902443184	360000
27	81454	5.668902443184	240000
27	83433	5.768902443184	360000
27	84573	5.868902443184	240000
27	86014	5.968902443184	360000
27	87222	6.068902443184	240000
27	89133	6.168902443184	360000
27	90273	6.268902443184	240000
27	91414	6.368902443184	240000
27	93139	6.468902443184	360000
27	94279	6.568902443184	240000
27	95989	6.668902443184	360000
27	97129	6.768902443184	240000
27	98269	6.868902443184	240000
27	99979	6.968902443184	360000
27	101119	7.068902443184	240000
27	103098	7.168902443184	360000
27	104254	7.268902443184	240000
27	105964	7.368902443184	360000
27	107104	7.468902443184	240000
27	108814	7.568902443184	360000
27	109954	7.668902443184	240000
27	111664	7.768902443184	360000
27	112804	7.868902443184	240000
27	114514	7.968902443184	360000
27	115654	8.068902443184	240000
27	117364	8.168902443184	360000
27	118504	8.268902443184	240000
27	120214	8.368902443184	360000
27	121354	8.468902443184	240000
27	123064	8.568902443184	360000
27	124204	8.668902443184	240000
27	125914	8.768902443184	360000
27	127054	8.868902443184	240000
27	128764	8.968902443184	360000
27	129904	9.068902443184	240000
27	131614	9.168902443184	360000
27	132754	9.268902443184	240000
27	133894	9.368902443184	240000
27	135604	9.468902443184	360000
27	136744	9.568902443184	240000
27	138454	9.668902443184	360000
27	139594	9.768902443184	240000
27	141304	9.868902443184	360000
27	142444	9.968902443184	240000
27	142753	10	385882.40455681
28	57233	3.986030337567	-199535.426242
28	58943	4.086030337567	240000
28	60653	4.186030337567	360000
28	61793	4.286030337567	240000
28	63503	4.386030337567	360000
28	64627	4.486030337567	240000
28	66337	4.586030337567	360000
28	67477	4.686030337567	240000
28	69187	4.786030337567	360000
28	70343	4.886030337567	240000
28	72053	4.986030337567	360000
28	73193	5.086030337567	240000
28	74887	5.186030337567	360000
28	76027	5.286030337567	240000
28	77737	5.386030337567	360000
28	79447	5.486030337567	360000
28	80587	5.586030337567	240000
28	82297	5.686030337567	360000
28	83168	5.786030337567	240000
28	85147	5.886030337567	360000
28	86287	5.986030337567	240000
28	87728	6.086030337567	360000
28	88868	6.186030337567	240000
28	90008	6.286030337567	240000
28	91718	6.386030337567	360000
28	93428	6.486030337567	360000
28	94568	6.586030337567	240000
28	96278	6.686030337567	360000
28	97418	6.786030337567	240000
28	99112	6.886030337567	360000
28	100252	6.986030337567	240000
28	101962	7.086030337567	360000
28	102833	7.186030337567	240000
28	104543	7.286030337567	360000
28	106253	7.386030337567	360000
28	107393	7.486030337567	240000
28	109103	7.586030337567	360000
28	110227	7.686030337567	240000
28	111953	7.786030337567	360000
28	113093	7.886030337567	240000
28	114787	7.986030337567	360000
28	115943	8.086030337567	240000
28	117653	8.186030337567	360000
28	118793	8.286030337567	240000
28	120503	8.386030337567	360000
28	121643	8.486030337567	240000
28	123337	8.586030337567	360000
28	124493	8.686030337567	240000
28	126203	8.786030337567	360000
28	127343	8.886030337567	240000
28	129053	8.986030337567	360000
28	130193	9.086030337567	240000
28	131903	9.186030337567	360000
28	133043	9.286030337567	240000
28	134183	9.386030337567	240000
28	135893	9.486030337567	360000
28	137033	9.586030337567	240000
28	138743	9.686030337567	360000
28	139883	9.786030337567	240000
28	141593	9.886030337567	360000
28	142733	9.986030337567	240000
28	142753	10	859004.29287775

