version 3
run UDP4-0-20241031-17:59:01-14592
attr configname UDP4
attr datetime 20241031-17:59:01
attr datetimef 20241031-175901
attr experiment UDP4
attr inifile omnetpp.ini
attr iterationvars ""
attr iterationvarsd ""
attr iterationvarsf ""
attr measurement ""
attr network MixedWLAN
attr processid 14592
attr repetition 0
attr replication #0
attr resultdir results
attr runnumber 0
attr seedset 0
config image-path ../../inet4.5/images
config **.numHostsTCP 0
config **.numHostsUDP 5
config network MixedWLAN
config sim-time-limit 10s
config **.mac.**.vector-recording false
config **.mac.**.bin-recording false
config **.tcp.**.vector-recording false
config **.tcp.**.bin-recording false
config **.radio.**.vector-recording false
config **.radio.**.bin-recording false
config **.constraintAreaMinX 0m
config **.constraintAreaMinY 0m
config **.constraintAreaMinZ 0m
config **.constraintAreaMaxX 50m
config **.constraintAreaMaxY 50m
config **.constraintAreaMaxZ 0m
config **.ap.wlan[*].address "\"10:00:00:00:00:00\""
config **.*host*.**.mgmt.accessPointAddress "\"10:00:00:00:00:00\""
config **.numApps 1
config **.udphost[0].app[*].typename UdpEchoApp
config **.udphost[0].app[*].localPort 3088
config **.udphost[*].app[*].typename UdpBasicApp
config **.udphost[*].app[*].destAddresses "\"udphost[0]\""
config **.udphost[*].app[*].messageLength 1500B
config **.udphost[*].app[*].sendInterval "40ms + uniform(-5ms, 5ms)"
config **.udphost[*].app[*].destPort 3088
config **.udphost[*].app[*].startTime 0s
config **.udphost[*].app[*].stopTime -1s
config **.tcphost[0].numApps 1
config **.tcphost[0].app[*].typename TcpGenericServerApp
config **.tcphost[0].app[0].localPort 1000
config **.tcphost[0].app[0].active true
config **.tcphost[*].numApps 1
config **.tcphost[*].app[*].typename TcpBasicClientApp
config **.tcphost[*].app[0].active true
config **.tcphost[*].app[0].connectAddress "\"tcphost[0]\""
config **.tcphost[*].app[0].connectPort 1000
config **.tcphost[*].app[0].startTime 0s
config **.tcphost[*].app[0].stopTime -1s
config **.tcphost[*].app[0].thinkTime 0s
config **.tcphost[*].app[0].idleInterval "40ms + uniform(-5ms, 5ms)"
config **.tcphost[*].app[0].reconnectInterval 0s
config **.tcphost[*].app[0].numRequestsPerSession 1
config **.tcphost[*].app[0].requestLength 1500B
config **.tcphost[*].app[0].replyLength 1500B
config **.wlan[*].bitrate 433.3Mbps
config **.wlan[*].mac.dcf.channelAccess.pendingQueue.packetCapacity 40
config **.wlan[*].mac.dcf.channelAccess.cwMin 20
config **.bandName "\"5 GHz (20 MHz)\""
config **.opMode "\"ac\""
config **.wlan[*].radio.antenna.numAntennas 8
config **.wlan[*].radio.transmitter.power 10mW
config **.wlan[*].radio.transmitter.headerLength 192b
config **.wlan[*].radio.transmitter.centerFrequency 5GHz
config **.wlan[*].radio.receiver.sensitivity -85dBm
config **.wlan[*].radio.receiver.snirThreshold 4dB

vector 0 MixedWLAN.udphost[0].udp passedUpPk:vector(count) ETV
attr interpolationmode none
attr recordingmode vector(count)
attr source packetSentToUpper
attr title "packets passed up, count"
vector 1 MixedWLAN.udphost[0].udp droppedPkWrongPort:vector(count) ETV
attr interpolationmode none
attr recordingmode vector(count)
attr source packetDropReasonIsNoPortFound(packetDropped)
attr title "packets dropped (wrong port), count"
vector 2 MixedWLAN.udphost[0].udp droppedPkBadChecksum:vector(count) ETV
attr interpolationmode none
attr recordingmode vector(count)
attr source packetDropReasonIsIncorrectlyReceived(packetDropped)
attr title "packets dropped (checksum error), count"
vector 3 MixedWLAN.udphost[1].udp passedUpPk:vector(count) ETV
attr interpolationmode none
attr recordingmode vector(count)
attr source packetSentToUpper
attr title "packets passed up, count"
vector 4 MixedWLAN.udphost[1].udp droppedPkWrongPort:vector(count) ETV
attr interpolationmode none
attr recordingmode vector(count)
attr source packetDropReasonIsNoPortFound(packetDropped)
attr title "packets dropped (wrong port), count"
vector 5 MixedWLAN.udphost[1].udp droppedPkBadChecksum:vector(count) ETV
attr interpolationmode none
attr recordingmode vector(count)
attr source packetDropReasonIsIncorrectlyReceived(packetDropped)
attr title "packets dropped (checksum error), count"
vector 6 MixedWLAN.udphost[2].udp passedUpPk:vector(count) ETV
attr interpolationmode none
attr recordingmode vector(count)
attr source packetSentToUpper
attr title "packets passed up, count"
vector 7 MixedWLAN.udphost[2].udp droppedPkWrongPort:vector(count) ETV
attr interpolationmode none
attr recordingmode vector(count)
attr source packetDropReasonIsNoPortFound(packetDropped)
attr title "packets dropped (wrong port), count"
vector 8 MixedWLAN.udphost[2].udp droppedPkBadChecksum:vector(count) ETV
attr interpolationmode none
attr recordingmode vector(count)
attr source packetDropReasonIsIncorrectlyReceived(packetDropped)
attr title "packets dropped (checksum error), count"
vector 9 MixedWLAN.udphost[3].udp passedUpPk:vector(count) ETV
attr interpolationmode none
attr recordingmode vector(count)
attr source packetSentToUpper
attr title "packets passed up, count"
vector 10 MixedWLAN.udphost[3].udp droppedPkWrongPort:vector(count) ETV
attr interpolationmode none
attr recordingmode vector(count)
attr source packetDropReasonIsNoPortFound(packetDropped)
attr title "packets dropped (wrong port), count"
vector 11 MixedWLAN.udphost[3].udp droppedPkBadChecksum:vector(count) ETV
attr interpolationmode none
attr recordingmode vector(count)
attr source packetDropReasonIsIncorrectlyReceived(packetDropped)
attr title "packets dropped (checksum error), count"
vector 12 MixedWLAN.udphost[4].udp passedUpPk:vector(count) ETV
attr interpolationmode none
attr recordingmode vector(count)
attr source packetSentToUpper
attr title "packets passed up, count"
vector 13 MixedWLAN.udphost[4].udp droppedPkWrongPort:vector(count) ETV
attr interpolationmode none
attr recordingmode vector(count)
attr source packetDropReasonIsNoPortFound(packetDropped)
attr title "packets dropped (wrong port), count"
vector 14 MixedWLAN.udphost[4].udp droppedPkBadChecksum:vector(count) ETV
attr interpolationmode none
attr recordingmode vector(count)
attr source packetDropReasonIsIncorrectlyReceived(packetDropped)
attr title "packets dropped (checksum error), count"
vector 15 MixedWLAN.udphost[1].app[0] packetSent:vector(packetBytes) ETV
attr interpolationmode none
attr recordingmode vector(packetBytes)
attr source packetSent
attr title "packets sent, packetBytes"
vector 16 MixedWLAN.udphost[2].app[0] packetSent:vector(packetBytes) ETV
attr interpolationmode none
attr recordingmode vector(packetBytes)
attr source packetSent
attr title "packets sent, packetBytes"
vector 17 MixedWLAN.udphost[3].app[0] packetSent:vector(packetBytes) ETV
attr interpolationmode none
attr recordingmode vector(packetBytes)
attr source packetSent
attr title "packets sent, packetBytes"
vector 18 MixedWLAN.udphost[4].app[0] packetSent:vector(packetBytes) ETV
attr interpolationmode none
attr recordingmode vector(packetBytes)
attr source packetSent
attr title "packets sent, packetBytes"
vector 19 MixedWLAN.udphost[1].udp packetSent:vector(packetBytes) ETV
attr interpolationmode none
attr recordingmode vector(packetBytes)
attr source packetSent
attr title "packets sent, packetBytes"
vector 20 MixedWLAN.udphost[2].udp packetSent:vector(packetBytes) ETV
attr interpolationmode none
attr recordingmode vector(packetBytes)
attr source packetSent
attr title "packets sent, packetBytes"
vector 21 MixedWLAN.udphost[3].udp packetSent:vector(packetBytes) ETV
attr interpolationmode none
attr recordingmode vector(packetBytes)
attr source packetSent
attr title "packets sent, packetBytes"
vector 22 MixedWLAN.udphost[4].udp packetSent:vector(packetBytes) ETV
attr interpolationmode none
attr recordingmode vector(packetBytes)
attr source packetSent
attr title "packets sent, packetBytes"
vector 23 MixedWLAN.udphost[1].ipv4.arp arpRequestSent:vector(packetBytes) ETV
attr recordingmode vector(packetBytes)
attr source arpRequestSent
attr title "ARP request sent, packetBytes"
vector 24 MixedWLAN.udphost[2].ipv4.arp arpRequestSent:vector(packetBytes) ETV
attr recordingmode vector(packetBytes)
attr source arpRequestSent
attr title "ARP request sent, packetBytes"
vector 25 MixedWLAN.udphost[3].ipv4.arp arpRequestSent:vector(packetBytes) ETV
attr recordingmode vector(packetBytes)
attr source arpRequestSent
attr title "ARP request sent, packetBytes"
vector 26 MixedWLAN.udphost[4].ipv4.arp arpRequestSent:vector(packetBytes) ETV
attr recordingmode vector(packetBytes)
attr source arpRequestSent
attr title "ARP request sent, packetBytes"
vector 27 MixedWLAN.udphost[0].ipv4.arp arpReplySent:vector(packetBytes) ETV
attr recordingmode vector(packetBytes)
attr source arpReplySent
attr title "ARP replies sent, packetBytes"
vector 28 MixedWLAN.udphost[0].udp packetReceived:vector(packetBytes) ETV
attr interpolationmode none
attr recordingmode vector(packetBytes)
attr source packetReceived
attr title "packets received, packetBytes"
vector 29 MixedWLAN.udphost[0].app[0] echoedPk:vector(packetBytes) ETV
attr interpolationmode none
attr recordingmode vector(packetBytes)
attr source packetSent
attr title "packets echoed, packetBytes"
vector 30 MixedWLAN.udphost[0].udp packetSent:vector(packetBytes) ETV
attr interpolationmode none
attr recordingmode vector(packetBytes)
attr source packetSent
attr title "packets sent, packetBytes"
vector 31 MixedWLAN.udphost[1].udp packetReceived:vector(packetBytes) ETV
attr interpolationmode none
attr recordingmode vector(packetBytes)
attr source packetReceived
attr title "packets received, packetBytes"
vector 32 MixedWLAN.udphost[1].app[0] packetReceived:vector(packetBytes) ETV
attr interpolationmode none
attr recordingmode vector(packetBytes)
attr source packetReceived
attr title "packets received, packetBytes"
vector 33 MixedWLAN.udphost[1].app[0] rcvdPkLifetime:vector ETV
attr interpolationmode none
attr recordingmode vector
attr source dataAge(packetReceived)
attr title "received packet lifetime"
attr unit s
vector 34 MixedWLAN.udphost[1].app[0] rcvdPkSeqNo:vector ETV
attr interpolationmode none
attr recordingmode vector
attr source appPkSeqNo(packetReceived)
attr title "received packet sequence number"
vector 35 MixedWLAN.udphost[2].udp packetReceived:vector(packetBytes) ETV
attr interpolationmode none
attr recordingmode vector(packetBytes)
attr source packetReceived
attr title "packets received, packetBytes"
vector 36 MixedWLAN.udphost[2].app[0] packetReceived:vector(packetBytes) ETV
attr interpolationmode none
attr recordingmode vector(packetBytes)
attr source packetReceived
attr title "packets received, packetBytes"
vector 37 MixedWLAN.udphost[2].app[0] rcvdPkLifetime:vector ETV
attr interpolationmode none
attr recordingmode vector
attr source dataAge(packetReceived)
attr title "received packet lifetime"
attr unit s
vector 38 MixedWLAN.udphost[2].app[0] rcvdPkSeqNo:vector ETV
attr interpolationmode none
attr recordingmode vector
attr source appPkSeqNo(packetReceived)
attr title "received packet sequence number"
vector 39 MixedWLAN.udphost[4].udp packetReceived:vector(packetBytes) ETV
attr interpolationmode none
attr recordingmode vector(packetBytes)
attr source packetReceived
attr title "packets received, packetBytes"
vector 40 MixedWLAN.udphost[4].app[0] packetReceived:vector(packetBytes) ETV
attr interpolationmode none
attr recordingmode vector(packetBytes)
attr source packetReceived
attr title "packets received, packetBytes"
vector 41 MixedWLAN.udphost[4].app[0] rcvdPkLifetime:vector ETV
attr interpolationmode none
attr recordingmode vector
attr source dataAge(packetReceived)
attr title "received packet lifetime"
attr unit s
vector 42 MixedWLAN.udphost[4].app[0] rcvdPkSeqNo:vector ETV
attr interpolationmode none
attr recordingmode vector
attr source appPkSeqNo(packetReceived)
attr title "received packet sequence number"
vector 43 MixedWLAN.udphost[3].udp packetReceived:vector(packetBytes) ETV
attr interpolationmode none
attr recordingmode vector(packetBytes)
attr source packetReceived
attr title "packets received, packetBytes"
vector 44 MixedWLAN.udphost[3].app[0] packetReceived:vector(packetBytes) ETV
attr interpolationmode none
attr recordingmode vector(packetBytes)
attr source packetReceived
attr title "packets received, packetBytes"
vector 45 MixedWLAN.udphost[3].app[0] rcvdPkLifetime:vector ETV
attr interpolationmode none
attr recordingmode vector
attr source dataAge(packetReceived)
attr title "received packet lifetime"
attr unit s
vector 46 MixedWLAN.udphost[3].app[0] rcvdPkSeqNo:vector ETV
attr interpolationmode none
attr recordingmode vector
attr source appPkSeqNo(packetReceived)
attr title "received packet sequence number"
vector 47 MixedWLAN.udphost[4].app[0] throughput:vector ETV
attr recordingmode vector
attr source throughput(packetReceived)
attr title throughput
attr unit bps
vector 48 MixedWLAN.udphost[2].app[0] throughput:vector ETV
attr recordingmode vector
attr source throughput(packetReceived)
attr title throughput
attr unit bps
vector 49 MixedWLAN.udphost[1].app[0] throughput:vector ETV
attr recordingmode vector
attr source throughput(packetReceived)
attr title throughput
attr unit bps
vector 50 MixedWLAN.udphost[3].app[0] throughput:vector ETV
attr recordingmode vector
attr source throughput(packetReceived)
attr title throughput
attr unit bps
0	0	0	0
0	829	0.003497929587	1
0	926	0.003831929587	2
0	1745	0.007230588502	3
0	1842	0.007573588502	4
0	2496	0.04346564813	5
0	2687	0.044223792224	6
0	3145	0.046092190293	7
0	3517	0.047743229881	8
0	4047	0.08020057308	9
0	4420	0.083048379455	10
0	4793	0.085046026867	11
0	5173	0.090255054289	12
0	5603	0.119917680808	13
0	5976	0.123751278524	14
0	6349	0.125402499884	15
0	6722	0.127008861214	16
0	7159	0.155465827737	17
0	7532	0.160100150385	18
0	7905	0.163914933211	19
0	8294	0.168628145829	20
0	8715	0.193243013377	21
0	9088	0.201571891771	22
0	9477	0.204825062541	23
0	9850	0.210710518637	24
0	10271	0.235786080291	25
0	10644	0.240951081641	26
0	11026	0.246153381863	27
0	11406	0.248725701958	28
0	11827	0.27502463073	29
0	12200	0.279803703901	30
0	12573	0.282173015463	31
0	12946	0.284205952896	32
0	13383	0.313673249447	33
0	13756	0.319309965638	34
0	14129	0.32191050718	35
0	14514	0.324226107399	36
0	14939	0.35440925689	37
0	15312	0.361302253363	38
0	15701	0.366647722301	39
0	16074	0.368622342606	40
0	16495	0.38988963675	41
0	16882	0.400837763125	42
0	17257	0.403357663866	43
0	17650	0.412955482624	44
0	18051	0.432542079219	45
0	18424	0.437916668145	46
0	18813	0.445762171832	47
0	19198	0.44849266597	48
0	19607	0.471166597592	49
0	19980	0.480508013568	50
0	20369	0.4857578592	51
0	20750	0.490683561292	52
0	21163	0.512121768766	53
0	21536	0.519744528942	54
0	21924	0.523002935978	55
0	22298	0.528685485266	56
0	22719	0.549223469553	57
0	23092	0.556848336307	58
0	23472	0.559241254553	59
0	23886	0.570757227883	60
0	24275	0.586317127169	61
0	24648	0.592747297893	62
0	25053	0.603824618388	63
0	25426	0.606342610809	64
0	25831	0.629087656272	65
0	26204	0.637630249246	66
0	26593	0.64328630656	67
0	26974	0.647782090164	68
0	27387	0.665605064872	69
0	27763	0.675181043609	70
0	28149	0.680175785698	71
0	28538	0.686708295039	72
0	28943	0.708421792612	73
0	29316	0.717915241432	74
0	29705	0.722494729379	75
0	30078	0.724118950739	76
0	30499	0.751562033562	77
0	30872	0.760510715718	78
0	31257	0.762188901626	79
0	31634	0.765091574794	80
0	32055	0.787238514291	81
0	32430	0.796716634884	82
0	32817	0.802270307053	83
0	33206	0.809289209093	84
0	33611	0.827372865767	85
0	33984	0.833484754372	86
0	34373	0.838976977843	87
0	34762	0.848242965906	88
0	35167	0.867774925303	89
0	35540	0.875672430733	90
0	35929	0.881040419561	91
0	36326	0.891251880654	92
0	36723	0.912402139116	93
0	37101	0.916348942305	94
0	37287	0.917062017165	95
0	37890	0.928910721311	96
0	38373	0.957118538699	97
0	38470	0.957488538699	98
0	39025	0.95994284834	99
0	39407	0.967006730178	100
0	39835	0.992627707092	101
0	40208	0.994901974745	102
0	40581	0.997017139451	103
0	41002	1.008430347724	104
0	41391	1.035343051476	105
0	41671	1.036561165924	106
0	42137	1.038618351832	107
0	42558	1.053236378083	108
0	42947	1.07392724511	109
0	43320	1.075551532694	110
0	43693	1.080317767691	111
0	44114	1.09550746911	112
0	44503	1.112243293723	113
0	44876	1.114903989797	114
0	45249	1.117686185926	115
0	45670	1.136811446063	116
0	46059	1.154059044337	117
0	46432	1.157030710993	118
0	46805	1.159628957611	119
0	47226	1.181399392789	120
0	47620	1.194621238691	121
0	47988	1.196353382853	122
0	48361	1.201643046026	123
0	48782	1.219842467467	124
0	49171	1.231081627371	125
0	49544	1.238744068598	126
0	49933	1.246243120812	127
0	50338	1.261133741313	128
0	50711	1.26896262384	129
0	51100	1.278265265676	130
0	51489	1.286234216257	131
0	51894	1.305330459721	132
0	52267	1.310763561114	133
0	52672	1.322708875919	134
0	53045	1.330928041307	135
0	53450	1.348458246207	136
0	53823	1.355102875485	137
0	54212	1.362435944205	138
0	54617	1.374747109936	139
0	55006	1.388895719753	140
0	55390	1.39932693612	141
0	55768	1.406543772316	142
0	56157	1.411369786367	143
0	56562	1.433019475663	144
0	56935	1.442127557705	145
0	57321	1.443760845289	146
0	57717	1.453422864684	147
0	58118	1.471542366238	148
0	58512	1.487030826966	149
0	58698	1.48770797106	150
0	59253	1.492748928251	151
0	59674	1.50756440576	152
0	60063	1.522361477449	153
0	60440	1.531998249738	154
0	60825	1.535428634138	155
0	61217	1.545053692427	156
0	61619	1.55858868228	157
0	62102	1.574859755618	158
0	62288	1.575644795206	159
0	62786	1.589167288252	160
0	63159	1.59730508327	161
0	63569	1.610039000267	162
0	63844	1.611311183949	163
0	64342	1.625322443918	164
0	64715	1.632974786114	165
0	65120	1.645285736625	166
0	65493	1.652334643375	167
0	65898	1.665673673936	168
0	66271	1.671230216015	169
0	66676	1.687218911556	170
0	67049	1.688780071226	171
0	67454	1.709955862215	172
0	67827	1.716051954482	173
0	68222	1.726000021931	174
0	68605	1.727759181601	175
0	69010	1.752612643292	176
0	69383	1.754354004622	177
0	69793	1.766201362849	178
0	69979	1.766968437709	179
0	70660	1.794640758126	180
0	70846	1.795488797714	181
0	71312	1.803597057969	182
0	71717	1.806802154329	183
0	72122	1.829765639892	184
0	72495	1.836837796709	185
0	72900	1.848356076016	186
0	73273	1.850196235686	187
0	73678	1.867410710222	188
0	74059	1.877580921379	189
0	74440	1.8866720987	190
0	74829	1.888434488376	191
0	75234	1.904922605016	192
0	75623	1.917409837611	193
0	76092	1.926954781256	194
0	76286	1.927775820844	195
0	76790	1.942973591935	196
0	77179	1.954884406995	197
0	77552	1.964235450625	198
0	77941	1.970928778006	199
0	78346	1.983934241823	200
0	78735	1.995886339087	201
0	79115	2.005935790376	202
0	79497	2.007496934538	203
0	79902	2.023766005115	204
0	80275	2.033121321148	205
0	80680	2.044312165483	206
0	81053	2.048418674021	207
0	81458	2.059629616054	208
0	81847	2.072715197089	209
0	82236	2.084897341461	210
0	82609	2.089043452173	211
0	82998	2.098192690257	212
0	83403	2.114494775561	213
0	83792	2.126898820692	214
0	84165	2.128765980362	215
0	84538	2.135599856746	216
0	84959	2.154965461397	217
0	85341	2.165225413482	218
0	85721	2.166903557644	219
0	86094	2.173128853793	220
0	86515	2.199813822652	221
0	86888	2.203388381539	222
0	87261	2.207549287726	223
0	87650	2.211270714491	224
0	88071	2.236964370595	225
0	88444	2.24424000843	226
0	88829	2.247708846019	227
0	89206	2.251253282828	228
0	89627	2.277791474075	229
0	90000	2.282430741366	230
0	90377	2.287441502537	231
0	90778	2.294386898851	232
0	91183	2.318302070825	233
0	91556	2.320122854847	234
0	91929	2.324004851506	235
0	92350	2.338183661084	236
0	92739	2.357317403229	237
0	93112	2.359015183459	238
0	93485	2.362122024714	239
0	93906	2.374819613959	240
0	94295	2.395330599104	241
0	94668	2.3976201619	242
0	95050	2.405627173545	243
0	95446	2.412782751402	244
0	95851	2.433213827505	245
0	96224	2.435402721349	246
0	96597	2.440832006722	247
0	97018	2.453556326888	248
0	97412	2.47541735091	249
0	97687	2.476689534592	250
0	98153	2.480692078297	251
0	98574	2.493314588801	252
0	98963	2.513197218307	253
0	99336	2.519158565769	254
0	99709	2.522623652399	255
0	100114	2.530700406608	256
0	100519	2.549635707217	257
0	100892	2.556608397256	258
0	101265	2.558342193182	259
0	101686	2.574804328714	260
0	102067	2.584967870834	261
0	102464	2.596838570913	262
0	102837	2.598784833397	263
0	103242	2.614758857363	264
0	103615	2.62308316302	265
0	104020	2.637410083312	266
0	104393	2.639133304808	267
0	104798	2.650251612153	268
0	105171	2.658179805175	269
0	105576	2.674233059292	270
0	105949	2.681658450776	271
0	106338	2.689363136555	272
0	106727	2.693536867117	273
0	107132	2.717137659626	274
0	107505	2.722007960233	275
0	107906	2.732518321872	276
0	108283	2.736372971116	277
0	108688	2.75771909902	278
0	109061	2.760734464544	279
0	109443	2.767992043503	280
0	109839	2.774318700615	281
0	110244	2.794829059191	282
0	110617	2.799329374181	283
0	111006	2.807152378996	284
0	111395	2.815105317714	285
0	111805	2.837634401445	286
0	112080	2.838753515893	287
0	112546	2.84569635575	288
0	112951	2.851735254815	289
0	113356	2.87587617546	290
0	113729	2.880868319328	291
0	114102	2.882591540688	292
0	114523	2.8947491473	293
0	114912	2.916730690021	294
0	115285	2.921759454884	295
0	115658	2.924920432694	296
0	116079	2.938227362582	297
0	116468	2.959946197542	298
0	116748	2.961209387101	299
0	117214	2.967730211347	300
0	117635	2.980777037881	301
0	118024	3.000362690181	302
0	118397	3.003632142678	303
0	118778	3.010634953164	304
0	119191	3.023518629207	305
0	119580	3.035495605684	306
0	119953	3.041059838765	307
0	120358	3.054392437234	308
0	120731	3.059873962099	309
0	121133	3.070752423702	310
0	121525	3.082404024068	311
0	121898	3.091365942791	312
0	122287	3.097186017973	313
0	122692	3.113357438159	314
0	123081	3.124422494325	315
0	123470	3.135952409552	316
0	123843	3.138536109717	317
0	124244	3.149201398177	318
0	124637	3.162249005947	319
0	125026	3.17759566868	320
0	125399	3.183483010836	321
0	125772	3.185170170506	322
0	126193	3.205799546799	323
0	126582	3.219237030385	324
0	126960	3.227091156205	325
0	127328	3.228607238151	326
0	127749	3.247325862701	327
0	128138	3.25810025781	328
0	128511	3.263545981308	329
0	128884	3.266358558884	330
0	129305	3.282968077376	331
0	129694	3.301080903903	332
0	130067	3.303972619885	333
0	130440	3.305569779555	334
0	130861	3.327424876417	335
0	131250	3.339785530153	336
0	131623	3.342032539107	337
0	131996	3.344878393777	338
0	132417	3.369432699958	339
0	132806	3.381352394782	340
0	133179	3.383364831332	341
0	133552	3.385178052828	342
0	133973	3.413586219622	343
0	134346	3.420429124296	344
0	134727	3.423909310926	345
0	135108	3.425578570154	346
0	135529	3.454869192289	347
0	135902	3.46145703722	348
0	136275	3.463931487643	349
0	136664	3.467994820423	350
0	137085	3.4911440483	351
0	137458	3.497699094032	352
0	137831	3.499851033801	353
0	138220	3.506967043588	354
0	138641	3.529984149461	355
0	139014	3.535660371717	356
0	139403	3.544017416941	357
0	139784	3.545755532541	358
0	140197	3.567228429635	359
0	140573	3.576840136003	360
0	140959	3.582138126149	361
0	141348	3.589137162255	362
0	141753	3.602245469621	363
0	142142	3.615119474825	364
0	142515	3.623047524093	365
0	142904	3.628960010392	366
0	143309	3.645586233127	367
0	143698	3.659558915847	368
0	144071	3.661773663974	369
0	144444	3.66644068089	370
0	144865	3.682585466038	371
0	145348	3.698192442127	372
0	145534	3.698959481715	373
0	146000	3.706370629634	374
0	146421	3.721651202333	375
0	146815	3.736989198835	376
0	147090	3.738171382517	377
0	147556	3.742576884075	378
0	147977	3.760862987455	379
0	148366	3.777382089178	380
0	148739	3.7796194797	381
0	149112	3.781207561646	382
0	149533	3.798827445431	383
0	149922	3.81528005886	384
0	150202	3.816484296559	385
0	150668	3.822383637977	386
0	151089	3.83616152142	387
0	151478	3.853438377637	388
0	151851	3.859790627094	389
0	152240	3.865153832347	390
0	152645	3.881032630602	391
0	153034	3.894409954361	392
0	153407	3.89900380254	393
0	153780	3.90066396221	394
0	154201	3.918950300722	395
0	154590	3.935240663694	396
0	154968	3.941332429141	397
0	155336	3.942803573303	398
0	155757	3.954062591987	399
0	156146	3.977553085873	400
0	156519	3.981779602659	401
0	156892	3.984259178773	402
0	157305	3.99445468212	403
0	157702	4.013512967411	404
0	158091	4.026190963306	405
0	158464	4.029009059476	406
0	158845	4.036360463155	407
0	159258	4.050470158437	408
0	159647	4.0694677206	409
0	160020	4.07126288027	410
0	160393	4.072896105013	411
0	160814	4.086344670532	412
0	161208	4.107598760998	413
0	161394	4.108320835858	414
0	161949	4.110685145499	415
0	162370	4.130647017324	416
0	162759	4.143566835969	417
0	163132	4.145263060712	418
0	163505	4.152779486035	419
0	163926	4.165850471807	420
0	164315	4.182334642134	421
0	164595	4.183597719248	422
0	165093	4.196225069525	423
0	165466	4.204485211994	424
0	165876	4.226850938605	425
0	166244	4.228529020551	426
0	166617	4.236112603124	427
0	167022	4.243813487303	428
0	167427	4.269945160241	429
0	167707	4.271145274689	430
0	168173	4.273094562273	431
0	168558	4.280505858811	432
0	168983	4.30652541447	433
0	169356	4.310663087763	434
0	169731	4.316092928844	435
0	170134	4.325298792097	436
0	170539	4.344100089198	437
0	170912	4.353095590327	438
0	171301	4.355393355359	439
0	171706	4.370101037505	440
0	172095	4.386827521702	441
0	172468	4.394979139337	442
0	172846	4.396711221283	443
0	173238	4.405283810101	444
0	173651	4.42812088991	445
0	174024	4.430181521709	446
0	174397	4.431814681379	447
0	174818	4.449717427623	448
0	175207	4.467971535486	449
0	175580	4.473398532208	450
0	175771	4.474102607068	451
0	176374	4.486619945017	452
0	176763	4.509786020266	453
0	177136	4.511509245009	454
0	177509	4.516868802329	455
0	177930	4.531269698247	456
0	178319	4.552577559494	457
0	178692	4.554210745402	458
0	179065	4.55726765738	459
0	179476	4.567247238188	460
0	179875	4.58868870648	461
0	180248	4.590312892388	462
0	180621	4.596728310072	463
0	181042	4.607978622716	464
0	181431	4.625630648571	465
0	181804	4.630727699792	466
0	182193	4.638523038377	467
0	182582	4.646172127574	468
0	182987	4.661655559439	469
0	183360	4.670606085055	470
0	183758	4.6809937753	471
0	184138	4.68869446568	472
0	184543	4.70367712786	473
0	184919	4.713299969619	474
0	185305	4.718441231643	475
0	185694	4.725618767341	476
0	186099	4.73968260964	477
0	186488	4.754599108663	478
0	186861	4.761645132578	479
0	187250	4.766757394866	480
0	187639	4.776123037623	481
0	188044	4.798071448513	482
0	188417	4.803815131056	483
0	188806	4.809275321192	484
0	189195	4.816610931349	485
0	189600	4.83472569461	486
0	189989	4.8467575058	487
0	190362	4.851842785497	488
0	190753	4.861357240053	489
0	191142	4.870891536703	490
0	191545	4.888805939879	491
0	191918	4.896154034266	492
0	192307	4.901793796387	493
0	192685	4.906060068257	494
0	193101	4.924506827498	495
0	193490	4.938831196086	496
0	193863	4.940384434171	497
0	194236	4.9453552634	498
0	194657	4.959777145755	499
0	195046	4.974300394179	500
0	195419	4.98113239606	501
0	195808	4.98606176537	502
0	196205	4.996249647161	503
0	196602	5.014661383089	504
0	196975	5.016784086091	505
0	197376	5.027433921558	506
0	197753	5.03205429486	507
0	198163	5.05928409219	508
0	198349	5.06003316705	509
0	198904	5.063983887016	510
0	199325	5.074864909299	511
0	199714	5.094951808347	512
0	200087	5.102305321789	513
0	200465	5.10484973727	514
0	200865	5.113446667841	515
0	201270	5.135710711626	516
0	201655	5.146167056256	517
0	201939	5.147393479078	518
0	202405	5.150267053158	519
0	202826	5.179119557509	520
0	203301	5.189242246578	521
0	203407	5.189630246578	522
0	203868	5.191507472074	523
0	204382	5.22168539646	524
0	204755	5.22464957982	525
0	205035	5.225786769379	526
0	205511	5.232031763609	527
0	205938	5.260968327421	528
0	206311	5.264504417102	529
0	206684	5.267564074274	530
0	207057	5.270175836917	531
0	207494	5.29972507951	532
0	207867	5.301214161456	533
0	208272	5.312239328982	534
0	208645	5.315059433375	535
0	209050	5.340498039226	536
0	209423	5.343049587181	537
0	209796	5.348693499447	538
0	210201	5.356389287656	539
0	210606	5.377596414303	540
0	210979	5.379211496249	541
0	211352	5.38559875487	542
0	211773	5.399667678437	543
0	212162	5.418115700056	544
0	212535	5.422095475524	545
0	212908	5.42636964788	546
0	213329	5.439671631994	547
0	213718	5.459160375156	548
0	214091	5.462813051701	549
0	214464	5.464365339285	550
0	214881	5.474894489354	551
0	215274	5.494591838893	552
0	215647	5.500158132327	553
0	216036	5.50852175391	554
0	216425	5.513258416524	555
0	216830	5.539240036586	556
0	217203	5.543254234161	557
0	217581	5.549147165093	558
0	217973	5.553326772996	559
0	218386	5.581194273379	560
0	218759	5.584586856096	561
0	219132	5.587979290504	562
0	219536	5.59555035012	563
0	219942	5.624105084963	564
0	220315	5.625747166909	565
0	220688	5.629870808451	566
0	221093	5.636967196057	567
0	221498	5.662761594465	568
0	221871	5.668712508462	569
0	222265	5.673934086392	570
0	222540	5.675026275951	571
0	223054	5.703681076147	572
0	223427	5.7093224796	573
0	223800	5.711392579415	574
0	224185	5.71431709882	575
0	224610	5.746190378306	576
0	224983	5.748612609248	577
0	225450	5.751748230787	578
0	225636	5.752470270375	579
0	226166	5.784312992495	580
0	226539	5.789902859765	581
0	226912	5.791527221095	582
0	227293	5.794435829508	583
0	227722	5.826746596937	584
0	228095	5.82911047418	585
0	228468	5.830939614879	586
0	228857	5.838005676396	587
0	229278	5.864095694504	588
0	229745	5.866137740872	589
0	229842	5.866552740872	590
0	230439	5.877677579892	591
0	230834	5.901903928361	592
0	231207	5.905687116058	593
0	231580	5.909338916739	594
0	232001	5.921629502154	595
0	232390	5.940919482307	596
0	232763	5.945231016382	597
0	233136	5.950105801999	598
0	233541	5.956869386246	599
0	233946	5.978388868827	600
0	234319	5.982888196793	601
0	234692	5.98688921869	602
0	235101	5.996613998526	603
0	235502	6.013748942522	604
0	235875	6.021990149914	605
0	236264	6.026747271457	606
0	236653	6.033104412446	607
0	237058	6.056192981778	608
0	237431	6.064358966087	609
0	237820	6.068359305773	610
0	238193	6.069866491681	611
0	238614	6.091462280148	612
0	239003	6.105452462646	613
0	239376	6.107094687389	614
0	239749	6.108819492667	615
0	240170	6.131469956737	616
0	240549	6.141467250802	617
0	240932	6.145605784724	618
0	241315	6.151935097743	619
0	241726	6.171132597429	620
0	242099	6.178346960935	621
0	242504	6.190013045046	622
0	242877	6.192094728253	623
0	243282	6.212739446387	624
0	243663	6.223011676473	625
0	244044	6.228009521114	626
0	244433	6.236140964573	627
0	244838	6.250143181087	628
0	245215	6.259806698457	629
0	245600	6.268801479272	630
0	245996	6.27881558296	631
0	246394	6.291867888066	632
0	246783	6.304617034617	633
0	247156	6.312533421648	634
0	247548	6.322119973766	635
0	247950	6.335634142526	636
0	248339	6.347143332422	637
0	248712	6.350843773019	638
0	249117	6.362063743981	639
0	249506	6.374838515537	640
0	249895	6.390920127728	641
0	250175	6.392147317287	642
0	250673	6.404233901078	643
0	251046	6.413067586651	644
0	251456	6.43104687489	645
0	251731	6.432165989338	646
0	252229	6.445462557485	647
0	252602	6.454895713831	648
0	253007	6.470720814896	649
0	253380	6.474157239743	650
0	253785	6.489695674931	651
0	254158	6.495911567007	652
0	254563	6.513865631663	653
0	254936	6.515714856406	654
0	255341	6.531177660516	655
0	255621	6.532332912265	656
0	256119	6.556365539085	657
0	256492	6.558402693486	658
0	256897	6.575124779456	659
0	257270	6.576945637038	660
0	257675	6.596319402318	661
0	258048	6.599589443514	662
0	258458	6.616663830412	663
0	258644	6.617404042573	664
0	259231	6.640954613667	665
0	259604	6.64407464815	666
0	260009	6.656946178918	667
0	260200	6.657737338593	668
0	260787	6.676124666825	669
0	261176	6.68831588186	670
0	261549	6.696077711735	671
0	261938	6.701305892828	672
0	262343	6.712478590197	673
0	262732	6.728765418164	674
0	263105	6.732726883407	675
0	263498	6.742412145307	676
0	263885	6.752018697861	677
0	264288	6.765349229486	678
0	264661	6.772223105136	679
0	265050	6.778193107774	680
0	265444	6.788114191125	681
0	265844	6.806883039762	682
0	266224	6.816357955423	683
0	266606	6.817901176783	684
0	267011	6.831809690188	685
0	267400	6.851444582842	686
0	267773	6.854455861882	687
0	268146	6.857306407386	688
0	268566	6.868079791188	689
0	268956	6.893629665976	690
0	269329	6.89536195356	691
0	269702	6.897049212788	692
0	270123	6.912037494024	693
0	270512	6.931125434435	694
0	270885	6.932758693663	695
0	271258	6.936076466871	696
0	271679	6.951067178899	697
0	272068	6.968772480819	698
0	272441	6.974546500929	699
0	272814	6.976152862259	700
0	273235	6.991681878497	701
0	273624	7.005972310384	702
0	273997	7.012714744388	703
0	274386	7.018652921431	704
0	274775	7.027080273843	705
0	275180	7.044239824888	706
0	275569	7.056337181977	707
0	275942	7.062874187714	708
0	276331	7.071839508468	709
0	276736	7.087600396822	710
0	277109	7.092770257176	711
0	277498	7.100611408774	712
0	277889	7.110147876092	713
0	278292	7.125986066146	714
0	278665	7.133545772619	715
0	279054	7.139509727356	716
0	279443	7.146310405015	717
0	279848	7.168840474749	718
0	280221	7.175738629843	719
0	280601	7.178898518613	720
0	281007	7.189173215358	721
0	281404	7.212928937772	722
0	281777	7.214951451385	723
0	282150	7.219717692603	724
0	282571	7.233734541815	725
0	282965	7.257279413253	726
0	283240	7.258371602812	727
0	283706	7.260410928678	728
0	284127	7.277271480249	729
0	284516	7.296146196927	730
0	284889	7.299748776305	731
0	285262	7.304467425056	732
0	285683	7.319153220966	733
0	286072	7.334991878621	734
0	286445	7.339805068726	735
0	286834	7.348895831085	736
0	287223	7.355546170606	737
0	287628	7.376358275606	738
0	288001	7.380857436768	739
0	288402	7.391500041155	740
0	288779	7.397693086009	741
0	289184	7.416917012645	742
0	289557	7.42468125224	743
0	289956	7.435004169675	744
0	290335	7.438872269029	745
0	290834	7.460469286131	746
0	290931	7.460866286131	747
0	291518	7.473000923946	748
0	291903	7.483580263484	749
0	292296	7.498628167097	750
0	292669	7.504978851618	751
0	293058	7.512966659979	752
0	293463	7.525416660903	753
0	293857	7.540396772332	754
0	294132	7.541569956014	755
0	294598	7.549479516158	756
0	295019	7.567698365375	757
0	295408	7.581318103681	758
0	295781	7.583465284617	759
0	296154	7.587482735452	760
0	296575	7.606837456562	761
0	296969	7.618864902513	762
0	297337	7.620507046675	763
0	297710	7.627991866	764
0	298131	7.645531771046	765
0	298504	7.654225987965	766
0	298893	7.661794058224	767
0	299282	7.667460517836	768
0	299687	7.680873671549	769
0	300076	7.69270655152	770
0	300449	7.702083905322	771
0	300838	7.709180001296	772
0	301243	7.724478643153	773
0	301616	7.731119491498	774
0	302021	7.7462773002	775
0	302394	7.752068166217	776
0	302799	7.764124432079	777
0	303172	7.771003962844	778
0	303577	7.788204772341	779
0	303950	7.791001044398	780
0	304343	7.800683140833	781
0	304728	7.807486509744	782
0	305133	7.828391763747	783
0	305506	7.830069985107	784
0	305911	7.843466717751	785
0	306284	7.849396276327	786
0	306689	7.86669481659	787
0	307062	7.868391075818	788
0	307467	7.884151809628	789
0	307840	7.885866034371	790
0	308245	7.90910977857	791
0	308618	7.911398827482	792
0	309015	7.921566258813	793
0	309396	7.927330132804	794
0	309801	7.946276793737	795
0	310174	7.954397189779	796
0	310563	7.960743409165	797
0	310948	7.96508507982	798
0	311357	7.983339219486	799
0	311746	7.997015526083	800
0	312119	8.002757319932	801
0	312492	8.004755351629	802
0	312913	8.027403151682	803
0	313303	8.037970439009	804
0	313582	8.039098628568	805
0	314048	8.047175169409	806
0	314469	8.069874065816	807
0	314842	8.076778620998	808
0	315215	8.078375842358	809
0	315636	8.091946279674	810
0	316025	8.113134097747	811
0	316305	8.114370835276	812
0	316771	8.119192408558	813
0	317192	8.134183373294	814
0	317581	8.149891223088	815
0	317954	8.154993011061	816
0	318327	8.157090768776	817
0	318748	8.172240285873	818
0	319137	8.187389040842	819
0	319620	8.19929416908	820
0	319717	8.19972716908	821
0	320296	8.210558425456	822
0	320693	8.224230779468	823
0	321082	8.238563636842	824
0	321455	8.242374502491	825
0	321844	8.251655668819	826
0	322249	8.268015456359	827
0	322638	8.281110601541	828
0	322918	8.282346785223	829
0	323384	8.289688477701	830
0	323805	8.306704127888	831
0	324179	8.316111474441	832
0	324470	8.317275658123	833
0	324972	8.330578042829	834
0	325361	8.343866103952	835
0	325750	8.35759383948	836
0	326123	8.361446637255	837
0	326496	8.366859168144	838
0	326917	8.386145956345	839
0	327290	8.393864792955	840
0	327679	8.399404955349	841
0	328068	8.406314917869	842
0	328473	8.427457090668	843
0	328846	8.434279311536	844
0	329235	8.439009472367	845
0	329640	8.450575628556	846
0	330029	8.464310367621	847
0	330406	8.473996844313	848
0	330791	8.479775002039	849
0	331180	8.485808332668	850
0	331585	8.507313900245	851
0	331958	8.514879475642	852
0	332339	8.517502702933	853
0	332720	8.524246055194	854
0	333141	8.549600205718	855
0	333514	8.551485493302	856
0	333890	8.559293738975	857
0	334284	8.561703290432	858
0	334697	8.591482681952	859
0	335070	8.595290229462	860
0	335443	8.599554810167	861
0	335824	8.601758031022	862
0	336253	8.633615337446	863
0	336626	8.63521262503	864
0	336999	8.639023171454	865
0	337372	8.641393567295	866
0	337809	8.668663602375	867
0	338182	8.675410310229	868
0	338576	8.680298342562	869
0	338944	8.681877424508	870
0	339365	8.706053686116	871
0	339747	8.716319546426	872
0	340127	8.719607006246	873
0	340500	8.721231227742	874
0	340921	8.745146273091	875
0	341294	8.751609772968	876
0	341677	8.755501588311	877
0	342056	8.758822956853	878
0	342477	8.781623414178	879
0	342850	8.78938749351	880
0	343239	8.797456265247	881
0	343628	8.802927462587	882
0	344033	8.824894417889	883
0	344406	8.831343308153	884
0	344791	8.835549481034	885
0	345196	8.846051949232	886
0	345589	8.860309870064	887
0	345962	8.866723336974	888
0	346367	8.878277906327	889
0	346740	8.887447873619	890
0	347137	8.897542389197	891
0	347522	8.907292216751	892
0	347907	8.915924571096	893
0	348312	8.929636159626	894
0	348685	8.937855525992	895
0	349074	8.943348745244	896
0	349479	8.955585578785	897
0	349868	8.971546698036	898
0	350241	8.975617418765	899
0	350636	8.985544322745	900
0	351035	8.997524399155	901
0	351424	9.013297451908	902
0	351797	9.017432142674	903
0	352185	9.024258672708	904
0	352591	9.040713645025	905
0	352965	9.050094468393	906
0	353353	9.053170021649	907
0	353758	9.065031195117	908
0	354147	9.079660067898	909
0	354520	9.088936506396	910
0	354909	9.092377142131	911
0	355314	9.104577700079	912
0	355703	9.119456299878	913
0	356076	9.125206318243	914
0	356465	9.133027868941	915
0	356870	9.147870522217	916
0	357243	9.156877830378	917
0	357653	9.168381748184	918
0	357928	9.169527862632	919
0	358426	9.190444643888	920
0	358799	9.198271073678	921
0	359188	9.204298934381	922
0	359561	9.207175673839	923
0	359982	9.228758618334	924
0	360355	9.235608775725	925
0	360744	9.24394515559	926
0	361133	9.246460947962	927
0	361538	9.270263627223	928
0	361911	9.273983653505	929
0	362305	9.282928038061	930
0	362682	9.284345262804	931
0	363094	9.305705300337	932
0	363467	9.312567336139	933
0	363872	9.327357983373	934
0	364245	9.328910065319	935
0	364650	9.347178463305	936
0	365023	9.353448011512	937
0	365428	9.369225402683	938
0	365801	9.37179658099	939
0	366206	9.388245809345	940
0	366579	9.389906068573	941
0	366984	9.409428648433	942
0	367357	9.414534119618	943
0	367750	9.424107639471	944
0	368135	9.432471813249	945
0	368540	9.453679157922	946
0	368820	9.454915347481	947
0	369318	9.466223118262	948
0	369691	9.474508550437	949
0	370096	9.495001878201	950
0	370469	9.498446224522	951
0	370858	9.505966861231	952
0	371247	9.515217144843	953
0	371657	9.536537713198	954
0	371932	9.537692827646	955
0	372427	9.548881992211	956
0	372803	9.555397108323	957
0	373208	9.571601437732	958
0	373581	9.575851556924	959
0	373986	9.586861938701	960
0	374359	9.595814363506	961
0	374764	9.611653977121	962
0	375137	9.617333348318	963
0	375542	9.630081748129	964
0	375915	9.631759969489	965
0	376320	9.652877227904	966
0	376693	9.655190150554	967
0	377096	9.665970356158	968
0	377471	9.668650790302	969
0	377876	9.693529682132	970
0	378249	9.695306906875	971
0	378654	9.70665300496	972
0	379027	9.708313264188	973
0	379432	9.731242581967	974
0	379805	9.739232440183	975
0	380194	9.748505925631	976
0	380583	9.751164454657	977
0	380988	9.770522104721	978
0	381365	9.780340565117	979
0	381755	9.787384808153	980
0	381941	9.788107020314	981
0	382544	9.81255396194	982
0	382917	9.816739992793	983
0	383306	9.8245787861	984
0	383689	9.827095342292	985
0	384100	9.850468644827	986
0	384473	9.858752068832	987
0	384874	9.869248556276	988
0	385251	9.870903361508	989
0	385656	9.895102708192	990
0	386029	9.896645932935	991
0	386434	9.908642292605	992
0	386807	9.911144544261	993
0	387217	9.933848389668	994
0	387585	9.935418575576	995
0	387987	9.946162946451	996
0	388363	9.948419454893	997
0	388768	9.973868882072	998
0	389141	9.97789215696	999
0	389515	9.98334401329	1000
0	389903	9.985767939064	1001
1	0	0	0
2	0	0	0
3	0	0	0
3	1334	0.005479256213	1
3	3428	0.04730132736	2
3	4237	0.081120710147	3
3	5793	0.120675817875	4
3	7349	0.156250964804	5
3	8905	0.194109150444	6
3	10461	0.236634217358	7
3	12017	0.275764767797	8
3	13573	0.314485386514	9
3	15129	0.355113393957	10
3	16685	0.390872773817	11
3	18241	0.433417216286	12
3	19797	0.472077734659	13
3	21353	0.512951905833	14
3	22909	0.55017060662	15
3	24465	0.587192264236	16
3	26021	0.629989793339	17
3	27577	0.666507201939	18
3	29133	0.709188929679	19
3	30689	0.752401170629	20
3	32245	0.788032651358	21
3	33801	0.828086002834	22
3	35357	0.86859606237	23
3	36913	0.913304276183	24
3	38847	0.959094825737	25
3	40025	0.993430844159	26
3	41955	1.037689449311	27
3	43142	1.074703382177	28
3	44693	1.11314543079	29
3	46249	1.154763181404	30
3	48178	1.19712051992	31
3	49361	1.231857764438	32
3	50901	1.269909760907	33
3	52457	1.311665698181	34
3	54013	1.356032012552	35
3	55585	1.400292073187	36
3	57514	1.444644982356	37
3	59070	1.489296258098	38
3	60637	1.532801386805	39
3	62571	1.576799932273	40
3	64127	1.612421356288	41
3	65683	1.653227780442	42
3	67239	1.689691208293	43
3	68418	1.726830158998	44
3	70258	1.768069574776	45
3	71907	1.807767291396	46
3	73463	1.850909372753	47
3	75019	1.889300625443	48
3	76482	1.928614957911	49
3	78131	1.971794915073	50
3	79687	2.008363071605	51
3	81243	2.049239811088	52
3	82799	2.08986458924	53
3	83987	2.127836957759	54
3	85911	2.167751694711	55
3	87451	2.208289424793	56
3	88634	2.245151145497	57
3	90190	2.283359878433	58
3	91373	2.319141207892	59
3	92929	2.358111540296	60
3	94858	2.398486298967	61
3	96041	2.434016964572	62
3	97970	2.477826671659	63
3	99153	2.514018355374	64
3	100709	2.550474844284	65
3	102265	2.585915007901	66
3	103805	2.624066300087	67
3	105361	2.659063942242	68
3	106917	2.694232004184	69
3	108473	2.737131108183	70
3	110029	2.775139837682	71
3	111585	2.815962454781	72
3	113141	2.852646391882	73
3	114713	2.895426284367	74
3	116269	2.939093499649	75
3	117825	2.981688174948	76
3	119381	3.024276766274	77
3	120921	3.060884099166	78
3	122477	3.09800715504	79
3	124033	3.139429246784	80
3	125594	3.184475147903	81
3	127239	3.22820133563	82
3	128701	3.264349118375	83
3	130630	3.306489916622	84
3	132186	3.345717530844	85
3	132996	3.382110531849	86
3	135298	3.426372707221	87
3	136092	3.462305174287	88
3	137648	3.498673231099	89
3	139204	3.536499508784	90
3	140772	3.57768827307	91
3	142332	3.616093611892	92
3	143888	3.660452052914	93
3	145817	3.700069618782	94
3	147373	3.739434554856	95
3	148556	3.778383226245	96
3	150858	3.823294775044	97
3	152430	3.865875969414	98
3	153970	3.901431099277	99
3	155526	3.94369671037	100
3	157082	3.98504431584	101
3	158654	4.029803196543	102
3	159842	4.070351857667	103
3	162139	4.111569282566	104
3	163702	4.153582623102	105
3	165283	4.197199206592	106
3	166815	4.237086740191	107
3	168363	4.27396069934	108
3	169930	4.317022065911	109
3	171491	4.356205492426	110
3	172752	4.396197318762	111
3	174219	4.430939658776	112
3	176050	4.475320744135	113
3	177699	4.517590939396	114
3	179255	4.558124794447	115
3	180811	4.597504447139	116
3	182383	4.639344175444	117
3	183955	4.681805912367	118
3	185495	4.71933436871	119
3	187051	4.762430269645	120
3	188607	4.804699268123	121
3	190179	4.847569642867	122
3	191735	4.889681076946	123
3	193291	4.925453964565	124
3	194847	4.960544282822	125
3	196403	4.997151784228	126
3	197943	5.032767431927	127
3	199515	5.075722046366	128
3	201055	5.114258804908	129
3	202595	5.151160190225	130
3	203969	5.191841569553	131
3	205225	5.226607906446	132
3	206874	5.268349211341	133
3	208462	5.312997466049	134
3	209986	5.349388636514	135
3	211542	5.386410891937	136
3	213098	5.427136784947	137
3	214654	5.465123476352	138
3	216226	5.509342890977	139
3	218168	5.554102910063	140
3	219727	5.596398487187	141
3	221283	5.637842333124	142
3	222641	5.67544137343	143
3	223990	5.712222716482	144
3	225826	5.753183407442	145
3	227491	5.795400966575	146
3	229051	5.838844813463	147
3	230635	5.878570716959	148
3	232191	5.922585639221	149
3	233731	5.957888523313	150
3	235298	5.997336135593	151
3	236843	6.033898549513	152
3	238104	6.06951458916	153
3	239939	6.109712629734	154
3	241511	6.15286423481	155
3	243067	6.19302386532	156
3	244623	6.23697110164	157
3	246195	6.279735720027	158
3	247745	6.323013110833	159
3	249307	6.363064881048	160
3	250863	6.404938038145	161
3	252419	6.446328694552	162
3	253975	6.490480811998	163
3	255811	6.533064049332	164
3	257087	6.575954916523	165
3	258923	6.61854117964	166
3	260572	6.65936147566	167
3	261739	6.696907848802	168
3	263295	6.733647020474	169
3	264851	6.773134242203	170
3	266513	6.817495274262	171
3	267963	6.855438998949	172
3	269524	6.896147090627	173
3	270707	6.931973571502	174
3	272258	6.969584617886	175
3	273814	7.006766447451	176
3	275370	7.045033961955	177
3	276926	7.088277533889	178
3	278482	7.126753203213	179
3	280038	7.169850611816	180
3	281594	7.213786074839	181
3	283341	7.258759700291	182
3	285079	7.300506913372	183
3	286262	7.335894015688	184
3	287818	7.377188412673	185
3	289374	7.417882149712	186
3	291121	7.461642423198	187
3	292486	7.499512304164	188
3	294415	7.542860203464	189
3	295971	7.584223421684	190
3	297527	7.621355183742	191
3	299083	7.662660195291	192
3	300647	7.702860042389	193
3	302211	7.747152437267	194
3	304140	7.791750181465	195
3	305417	7.829628082586	196
3	306884	7.867506953657	197
3	308435	7.909930915637	198
3	309991	7.947007930804	199
3	311547	7.984106356553	200
3	313103	8.028287288749	201
3	314659	8.070668202883	202
3	316588	8.115669972343	203
3	318144	8.155859148128	204
3	320089	8.201288518308	205
3	321272	8.239582773909	206
3	323201	8.283646094863	207
3	324757	8.318511967763	208
3	326313	8.362231774322	209
3	327869	8.400307092416	210
3	329425	8.439866609434	211
3	330981	8.480560139106	212
3	332148	8.515700612709	213
3	333704	8.552279630369	214
3	335260	8.596201366529	215
3	336816	8.636078762097	216
3	338372	8.676366447296	217
3	339944	8.717059683493	218
3	341484	8.752394910035	219
3	343040	8.790352630577	220
3	344596	8.83237144522	221
3	346152	8.867463474041	222
3	347720	8.907996353818	223
3	349264	8.944043882311	224
3	350832	8.986311459812	225
3	352376	9.025097809775	226
3	353948	9.065897332184	227
3	355504	9.105479837146	228
3	357060	9.148646659284	229
3	358616	9.191319780955	230
3	360172	9.229669755401	231
3	361728	9.27110276429	232
3	363284	9.306517437404	233
3	364840	9.348080600372	234
3	366401	9.389012946412	235
3	367948	9.424991776538	236
3	369508	9.467197255329	237
3	371048	9.506949998298	238
3	372620	9.549865129278	239
3	374176	9.587584075768	240
3	375826	9.631282066968	241
3	377288	9.666818493225	242
3	379217	9.709224401255	243
3	380773	9.752048591724	244
3	382220	9.789361157381	245
3	383885	9.828006479359	246
3	385441	9.871931498575	247
3	386997	9.911911681328	248
3	388553	9.94926759196	249
3	390093	9.986562076131	250
4	0	0	0
5	0	0	0
6	0	0	0
6	1514	0.006282410885	1
6	3333	0.046940234036	2
6	4981	0.08602907061	3
6	6258	0.124942504039	4
6	8482	0.169557189572	5
6	10044	0.21155856238	6
6	11594	0.249690745701	7
6	13142	0.285179996639	8
6	14706	0.324930151142	9
6	16262	0.369479386349	10
6	17846	0.413848526367	11
6	19390	0.449403709713	12
6	20557	0.486641902943	13
6	22113	0.523976979721	14
6	23666	0.560080298296	15
6	25241	0.604564662131	16
6	26781	0.644053350303	17
6	28337	0.680951829441	18
6	29987	0.723721954894	19
6	31162	0.761755905781	20
6	33005	0.803136350796	21
6	34561	0.839717021586	22
6	36117	0.881996463304	23
6	37657	0.918713060908	24
6	39213	0.960799892083	25
6	40396	0.995687018488	26
6	42046	1.038176355987	27
6	43881	1.081318811434	28
6	45437	1.118471229669	29
6	46993	1.160486001354	30
6	48549	1.202428089769	31
6	50121	1.247028164555	32
6	51677	1.28699226	33
6	53233	1.33171308505	34
6	54805	1.375460153679	35
6	56345	1.41211883011	36
6	57913	1.454243908427	37
6	59441	1.493650971994	38
6	61013	1.536231677881	39
6	62476	1.576429838949	40
6	63943	1.611654188104	41
6	65308	1.646160780368	42
6	66869	1.687994955299	43
6	68793	1.728544225344	44
6	70349	1.768448481452	45
6	71506	1.804274101712	46
6	73093	1.849240119759	47
6	74632	1.887430142443	48
6	76573	1.929083864587	49
6	77748	1.965056494368	50
6	79406	2.007117938693	51
6	80868	2.045124209226	52
6	82424	2.085619385204	53
6	84353	2.129443024105	54
6	85630	2.166551561799	55
6	87076	2.204218425282	56
6	89021	2.248502889762	57
6	90571	2.28827154628	58
6	92117	2.324942895249	59
6	93673	2.362871068457	60
6	95245	2.406592217288	61
6	96785	2.441707050465	62
6	98341	2.48148612204	63
6	99905	2.523390696142	64
6	101457	2.559316236925	65
6	102652	2.597749614656	66
6	104208	2.638294127055	67
6	105764	2.675054103035	68
6	107320	2.717877703369	69
6	108876	2.758450142763	70
6	110432	2.795668102934	71
6	112361	2.839989559636	72
6	113544	2.876742219203	73
6	115100	2.917578733764	74
6	116847	2.961588391256	75
6	118212	3.001228733924	76
6	119768	3.036325649427	77
6	121324	3.071672467445	78
6	122880	3.114232481902	79
6	124436	3.15007644192	80
6	125960	3.186054214249	81
6	127526	3.229527281894	82
6	129072	3.267233602627	83
6	130260	3.304685663628	84
6	131811	3.34306058285	85
6	133740	3.386035096571	86
6	134534	3.421295168039	87
6	136468	3.464788531386	88
6	138022	3.500699077544	89
6	139591	3.544748460684	90
6	141147	3.582941169892	91
6	142703	3.623931567836	92
6	144259	3.662558707717	93
6	145722	3.699699525458	94
6	147189	3.738622386672	95
6	149300	3.782001605389	96
6	150483	3.817648512875	97
6	152039	3.860575670837	98
6	153595	3.899869846283	99
6	155245	3.942460577458	100
6	156707	3.982600646402	101
6	158279	4.027138007049	102
6	160213	4.072020924013	103
6	161764	4.109891029572	104
6	163320	4.146147104455	105
6	164876	4.184842873374	106
6	166432	4.229395064294	107
6	168082	4.272688566428	108
6	169544	4.311610131506	109
6	171105	4.35398863407	110
6	173041	4.397406265026	111
6	174585	4.432824725122	112
6	176141	4.475681650811	113
6	176951	4.510697064009	114
6	178601	4.553714749557	115
6	180157	4.589861896543	116
6	181619	4.626415692314	117
6	183175	4.662494603182	118
6	184731	4.704417171603	119
6	186287	4.740521653383	120
6	187837	4.777043081366	121
6	189383	4.817422975092	122
6	190947	4.862088283796	123
6	192495	4.90265084013	124
6	193678	4.939625239829	125
6	195234	4.975211437922	126
6	196790	5.015392426832	127
6	198719	5.061774422954	128
6	199902	5.09577285209	129
6	201458	5.136531755369	130
6	203014	5.179958601252	131
6	204570	5.222587440203	132
6	206126	5.261735371164	133
6	208055	5.302170205199	134
6	209611	5.343861630924	135
6	211167	5.380005539992	136
6	212350	5.418963743799	137
6	213906	5.459954418899	138
6	215462	5.495493882636	139
6	217018	5.540268080329	140
6	218574	5.582042317122	141
6	220503	5.626613210652	142
6	221686	5.663708638208	143
6	223242	5.70451111989	144
6	225171	5.749379652991	145
6	226354	5.785188036238	146
6	227910	5.82756764068	147
6	229471	5.864844738247	148
6	231022	5.902697972104	149
6	232951	5.946007060125	150
6	234507	5.983682240536	151
6	236063	6.022811193657	152
6	237619	6.06525200983	153
6	239564	6.107951731132	154
6	241120	6.146543828467	155
6	242692	6.190843088789	156
6	244232	6.228929564857	157
6	245792	6.269649523015	158
6	247344	6.313534465391	159
6	248900	6.351664816762	160
6	250274	6.392544321442	161
6	252012	6.433402033081	162
6	253568	6.475005283486	163
6	255124	6.516535900149	164
6	256307	6.557222582828	165
6	257863	6.597185446061	166
6	259419	6.64182065741	167
6	260975	6.677071710568	168
6	262531	6.71332663394	169
6	264082	6.752929741604	170
6	265641	6.788998234868	171
6	267199	6.832639733931	172
6	268755	6.868801834931	173
6	270311	6.912903537767	174
6	271867	6.951834222642	175
6	273423	6.99238592224	176
6	274963	7.027901317586	177
6	276523	7.072624552211	178
6	278084	7.110896919835	179
6	279631	7.147167448758	180
6	281203	7.190066259101	181
6	282759	7.234681585558	182
6	284315	7.278164523992	183
6	285871	7.319920264709	184
6	287411	7.356286214349	185
6	288967	7.398460129752	186
6	290523	7.439783312772	187
6	292095	7.484293307227	188
6	293651	7.526273704646	189
6	295207	7.568573409118	190
6	296763	7.607622500305	191
6	298319	7.646352814789	192
6	299875	7.681757715292	193
6	301431	7.725443686896	194
6	302987	7.765008475822	195
6	304539	7.801423184576	196
6	306099	7.844431761494	197
6	307655	7.884972853371	198
6	309211	7.922351302556	199
6	310751	7.961537452908	200
6	312680	8.005594395372	201
6	314244	8.048095213152	202
6	315824	8.092722323417	203
6	317380	8.134950417037	204
6	318936	8.173232329616	205
6	320492	8.211424469199	206
6	322040	8.252440712562	207
6	323572	8.290464521444	208
6	325160	8.331390086572	209
6	326691	8.367653211887	210
6	328256	8.407036961612	211
6	329828	8.451369672299	212
6	331368	8.486629376411	213
6	332916	8.525022098937	214
6	334086	8.560033782718	215
6	335631	8.60042985391	216
6	337560	8.642160611038	217
6	339132	8.682752468251	218
6	340688	8.722070271485	219
6	342244	8.759779000596	220
6	343816	8.80381150633	221
6	345388	8.846800992975	222
6	346935	8.888295917362	223
6	348500	8.930538203369	224
6	350056	8.972232741779	225
6	351612	9.014199495651	226
6	353160	9.050951512136	227
6	355097	9.093279185874	228
6	356653	9.133911912684	229
6	358209	9.170826906375	230
6	359376	9.205029978124	231
6	361321	9.247308991705	232
6	362877	9.285220306547	233
6	364433	9.329677109062	234
6	365989	9.372698624733	235
6	367545	9.415373163361	236
6	368919	9.455285351636	237
6	370657	9.499177268265	238
6	372213	9.539000981772	239
6	373769	9.576726600667	240
6	375325	9.618235392061	241
6	376881	9.656038194297	242
6	378064	9.694467725875	243
6	379620	9.73200062571	244
6	381176	9.771244148464	245
6	382732	9.813411005683	246
6	384288	9.85131668857	247
6	385849	9.895968751935	248
6	387494	9.935030579731	249
6	389329	9.978632200703	250
7	0	0	0
8	0	0	0
9	0	0	0
9	2218	0.009017991337	1
9	3711	0.048591482745	2
9	4614	0.083842632319	3
9	6548	0.126223752748	4
9	7726	0.160993403249	5
9	9282	0.202303144635	6
9	11227	0.246965634727	7
9	12767	0.283048268327	8
9	14323	0.322758760044	9
9	15895	0.367531975165	10
9	17451	0.40415191673	11
9	19007	0.446556424696	12
9	20951	0.491414814156	13
9	22496	0.52959673813	14
9	24080	0.571560480747	15
9	25620	0.607064863673	16
9	27176	0.648729343028	17
9	28732	0.687529547903	18
9	30272	0.724922203603	19
9	31828	0.765948827658	20
9	33400	0.810074461957	21
9	34964	0.84908221877	22
9	36527	0.892001133518	23
9	38084	0.929803974175	24
9	39609	0.967773983042	25
9	41196	1.009170600588	26
9	42752	1.054183630947	27
9	44308	1.096292721974	28
9	45864	1.137659698927	29
9	47420	1.182184645653	30
9	48976	1.220609720331	31
9	50532	1.262035994177	32
9	52088	1.306142712585	33
9	53644	1.349243499071	34
9	55200	1.389644972617	35
9	56756	1.433858728527	36
9	58312	1.472309619102	37
9	59868	1.508448658624	38
9	61418	1.545802945291	39
9	62980	1.590033541116	40
9	64536	1.626215696782	41
9	66092	1.6664859268	42
9	67648	1.710786115079	43
9	69577	1.755040257486	44
9	71133	1.796689050578	45
9	72689	1.837713049573	46
9	74261	1.878303174243	47
9	75817	1.918195090475	48
9	77373	1.955714659859	49
9	78929	1.996662591951	50
9	80477	2.033996574012	51
9	82041	2.073545449953	52
9	83597	2.115199028425	53
9	85153	2.155732714261	54
9	86709	2.200743075516	55
9	88265	2.237857623459	56
9	89821	2.278648726939	57
9	91750	2.320863107711	58
9	93306	2.360043436323	59
9	94489	2.396052851968	60
9	96418	2.436259974213	61
9	97881	2.477429787456	62
9	99530	2.520015818633	63
9	101086	2.55749265012	64
9	103031	2.599714086261	65
9	104587	2.640017557672	66
9	106143	2.68253370364	67
9	107699	2.722784213097	68
9	109255	2.761627717408	69
9	110811	2.800186627045	70
9	112274	2.839583768757	71
9	114296	2.883502793552	72
9	115852	2.925741685558	73
9	117408	2.968569464211	74
9	118980	3.011411206028	75
9	120552	3.055204690098	76
9	122096	3.092250195655	77
9	123664	3.136881662416	78
9	125220	3.178443921544	79
9	126776	3.219959283249	80
9	128332	3.258993510674	81
9	129888	3.301983156767	82
9	131444	3.340732783017	83
9	133378	3.384285084196	84
9	134934	3.42474856379	85
9	136858	3.468924073287	86
9	138422	3.507815296452	87
9	139986	3.546675785405	88
9	141542	3.590039415119	89
9	143098	3.629907263256	90
9	144638	3.667414933754	91
9	146194	3.707200882498	92
9	147750	3.743461136939	93
9	149027	3.780846774922	94
9	150307	3.816935509835	95
9	151672	3.854331630501	96
9	153228	3.895222207225	97
9	154784	3.936169916558	98
9	156340	3.978383338737	99
9	157896	4.014415220275	100
9	159452	4.051228411301	101
9	161008	4.087228923396	102
9	162564	4.131477270188	103
9	164120	4.166707724671	104
9	165660	4.205414464858	105
9	167216	4.244769740167	106
9	168760	4.281390111675	107
9	170334	4.326057044961	108
9	171900	4.370886290369	109
9	173442	4.406195062965	110
9	175012	4.450493680487	111
9	176568	4.487396197881	112
9	178124	4.532297951111	113
9	179680	4.568203491052	114
9	181236	4.60897087558	115
9	182776	4.647083380438	116
9	184332	4.689704718544	117
9	185888	4.726314020205	118
9	187444	4.76744364773	119
9	189000	4.810033574056	120
9	190556	4.852808038361	121
9	192112	4.89703828713	122
9	194057	4.941133687035	123
9	195613	4.982115648924	124
9	197169	5.017659338955	125
9	198543	5.060818419914	126
9	200281	5.102973574653	127
9	202226	5.148647731942	128
9	203783	5.19114668535	129
9	205711	5.232889016473	130
9	207259	5.271051089781	131
9	208839	5.315916686239	132
9	210395	5.35722854052	133
9	211967	5.400515931301	134
9	213523	5.440519884858	135
9	215079	5.475814742218	136
9	216619	5.514142669388	137
9	217782	5.549941417957	138
9	218953	5.58550710896	139
9	220230	5.625287380185	140
9	222065	5.669569761326	141
9	223621	5.710098732464	142
9	224804	5.74719163117	143
9	227106	5.792294473959	144
9	228289	5.829895727044	145
9	230036	5.867310993736	146
9	231401	5.906499368922	147
9	232584	5.941803735171	148
9	234140	5.979129121691	149
9	235696	6.014723195386	150
9	237252	6.056987234642	151
9	238808	6.092364533012	152
9	240364	6.132165209601	153
9	241920	6.171872850293	154
9	243476	6.213551699251	155
9	245032	6.251063433951	156
9	246588	6.29263514093	157
9	248144	6.33644639539	158
9	249700	6.375695768401	159
9	251242	6.413789839515	160
9	252804	6.455743966695	161
9	254352	6.496678819871	162
9	255908	6.533398165129	163
9	257464	6.577622889902	164
9	259020	6.618983295437	165
9	260483	6.658973591457	166
9	262132	6.702271145692	167
9	263700	6.743359398171	168
9	265244	6.779068360638	169
9	266800	6.818731429647	170
9	268340	6.85803766025	171
9	269896	6.897906465652	172
9	271079	6.933444946527	173
9	273008	6.977118115123	174
9	274580	7.019573174295	175
9	276136	7.063731440578	176
9	277692	7.101468661638	177
9	279248	7.14033998022	178
9	280803	7.179854771477	179
9	282344	7.220727945467	180
9	283900	7.261205181542	181
9	285456	7.30543267792	182
9	287034	7.349735083949	183
9	288600	7.392222294019	184
9	290156	7.435807422539	185
9	291712	7.47387617681	186
9	293252	7.513877912843	187
9	294799	7.550444769022	188
9	296348	7.588222988316	189
9	297908	7.628696118864	190
9	299476	7.6681827707	191
9	301032	7.71001025416	192
9	302588	7.752790419081	193
9	303771	7.788873025205	194
9	305700	7.830864237971	195
9	307256	7.869284328682	196
9	308812	7.912211080346	197
9	310368	7.955389442643	198
9	311940	7.997854778947	199
9	313687	8.039468841844	200
9	315409	8.079296095222	201
9	316965	8.120004661422	202
9	318521	8.15787602164	203
9	319911	8.200431421944	204
9	321649	8.243312755355	205
9	323023	8.282680998499	206
9	324579	8.317681871399	207
9	325944	8.358316092344	208
9	327484	8.394632045819	209
9	329040	8.4352985644	210
9	330609	8.474899097177	211
9	332540	8.518359955797	212
9	334486	8.562551543296	213
9	336026	8.602642283886	214
9	337193	8.639799424318	215
9	338859	8.681426637784	216
9	340321	8.72038325911	217
9	341877	8.756214841175	218
9	343433	8.798277518111	219
9	344989	8.836478733898	220
9	346561	8.879081159191	221
9	348101	8.91671882396	222
9	349673	8.956343831649	223
9	351229	8.998543652019	224
9	352785	9.041498897889	225
9	354341	9.080535320762	226
9	355897	9.120151552742	227
9	357441	9.157618083242	228
9	358993	9.199101326542	229
9	360549	9.236367028589	230
9	362105	9.274858906369	231
9	363661	9.313280589003	232
9	365217	9.354260264376	233
9	366773	9.390727321437	234
9	368329	9.433356066113	235
9	369885	9.475392803301	236
9	371449	9.516119397707	237
9	372997	9.556173361187	238
9	374558	9.59677061637	239
9	376109	9.632608222353	240
9	377665	9.669454043166	241
9	378853	9.707465257824	242
9	380396	9.749408178495	243
9	382320	9.789830273178	244
9	383500	9.825418038964	245
9	385166	9.870542574784	246
9	386628	9.909418545469	247
9	388184	9.946984199315	248
9	389720	9.984354266154	249
10	0	0	0
11	0	0	0
12	0	0	0
12	2034	0.008304788188	1
12	3802	0.048997429567	2
12	5371	0.091031253975	3
12	6914	0.1277220609	4
12	8097	0.164718132897	5
12	9669	0.205736262227	6
12	10836	0.241853281327	7
12	12392	0.280723903587	8
12	13948	0.320248165324	9
12	15504	0.362051453049	10
12	17076	0.401658962811	11
12	18616	0.438764867831	12
12	20180	0.481356213254	13
12	21728	0.520547728628	14
12	23284	0.557804535993	15
12	24840	0.593613497579	16
12	26396	0.638487448932	17
12	27963	0.676128243295	18
12	29516	0.718619441118	19
12	31453	0.762983101312	20
12	32630	0.79766383457	21
12	34176	0.834341954058	22
12	35732	0.876520630419	23
12	37568	0.918280216851	24
12	38667	0.958318738385	25
12	40773	0.997892339137	26
12	42329	1.039412551518	27
12	43512	1.07637273238	28
12	45068	1.115644189483	29
12	46624	1.157932910679	30
12	47901	1.195839542951	31
12	49736	1.239601268284	32
12	51300	1.279023465362	33
12	52864	1.323530075605	34
12	54404	1.363293143891	35
12	55960	1.407382972002	36
12	57136	1.442849757391	37
12	58890	1.488484170746	38
12	60255	1.523137677135	39
12	61811	1.559571881966	40
12	63351	1.598189282956	41
12	64907	1.6337059858	42
12	66463	1.672051415701	43
12	68019	1.716981154168	44
12	69207	1.753406842978	45
12	71038	1.7963009974	46
12	72314	1.830712839578	47
12	73870	1.868240909908	48
12	75426	1.905716804702	49
12	76982	1.943731791621	50
12	78538	1.984881441509	51
12	80094	2.024623204801	52
12	81650	2.06036081574	53
12	83196	2.099004889943	54
12	84730	2.136295056432	55
12	86286	2.173941053479	56
12	87842	2.212199914177	57
12	89398	2.252047482514	58
12	90970	2.295163098537	59
12	92542	2.33898686077	60
12	94098	2.375793813645	61
12	95638	2.413711951088	62
12	97210	2.454440526574	63
12	98766	2.494162788487	64
12	100306	2.531485606294	65
12	101878	2.5755625284	66
12	103434	2.615634057049	67
12	104990	2.651117811839	68
12	106530	2.690301336241	69
12	108102	2.733402521558	70
12	109642	2.768948243189	71
12	111198	2.807991578682	72
12	112738	2.846643555436	73
12	114015	2.882185700786	74
12	115477	2.92258065457	75
12	117033	2.962409622059	76
12	118589	3.004453342364	77
12	120145	3.041854038451	78
12	121717	3.083198223754	79
12	123273	3.125126694011	80
12	124829	3.163124205633	81
12	126385	3.206728746485	82
12	127941	3.248039062387	83
12	129497	3.283807277062	84
12	131053	3.328255076103	85
12	132609	3.370361899644	86
12	134165	3.414407419308	87
12	135721	3.455816391975	88
12	137277	3.491965247986	89
12	138833	3.530895349147	90
12	140389	3.567977629321	91
12	141945	3.603129669307	92
12	143501	3.646371432813	93
12	145057	3.683541665724	94
12	146613	3.722544402019	95
12	148169	3.761648187141	96
12	149725	3.799747645117	97
12	151281	3.837018721106	98
12	152837	3.881844830288	99
12	154393	3.919753500408	100
12	155949	3.955009791673	101
12	157505	3.995302881806	102
12	159045	4.037199662841	103
12	160585	4.073852304699	104
12	161586	4.109088035544	105
12	162956	4.144469035655	106
12	164698	4.184075879346	107
12	166157	4.228123180649	108
12	167904	4.271894474375	109
12	169175	4.307328614156	110
12	170731	4.345047288884	111
12	172287	4.387756721388	112
12	173843	4.429041089596	113
12	175399	4.468783735172	114
12	177328	4.512294444695	115
12	178884	4.554977945088	116
12	180440	4.591026092074	117
12	181996	4.631656899478	118
12	183556	4.671517284741	119
12	185120	4.714274169305	120
12	186680	4.755483308349	121
12	188236	4.798964648199	122
12	189792	4.835609894296	123
12	191344	4.871838736389	124
12	192885	4.906944267943	125
12	194428	4.946113463086	126
12	196000	4.986801965056	127
12	197572	5.028372121244	128
12	199096	5.064796086702	129
12	200664	5.105589936956	130
12	202131	5.148196678764	131
12	204153	5.192572776266	132
12	205320	5.227103969065	133
12	206503	5.265460616788	134
12	207780	5.300871321554	135
12	209242	5.341436238912	136
12	210892	5.378760656347	137
12	212727	5.42294367521	138
12	214288	5.463598251387	139
12	215839	5.500997332013	140
12	217395	5.544183433847	141
12	219324	5.58891749019	142
12	220880	5.630755008137	143
12	222825	5.676181580143	144
12	224381	5.715057298506	145
12	225921	5.753544470061	146
12	226736	5.790823059451	147
12	228660	5.831634814565	148
12	230216	5.868105152719	149
12	231772	5.910259116425	150
12	233335	5.950954001685	151
12	234884	5.987773418376	152
12	236456	6.027478471143	153
12	238385	6.070615691367	154
12	239195	6.106291662332	155
12	240751	6.142378450488	156
12	242291	6.179114160621	157
12	243863	6.223895876159	158
12	245414	6.260609898143	159
12	246975	6.305591234303	160
12	248531	6.347937532108	161
12	250460	6.393311552245	162
12	251923	6.432960189024	163
12	253199	6.471524014582	164
12	254755	6.514848831349	165
12	256684	6.559268893172	166
12	258240	6.6004556432	167
12	259796	6.644913847836	168
12	261368	6.689164081546	169
12	262924	6.72963161785	170
12	264480	6.766224429172	171
12	266036	6.807641239448	172
12	267592	6.852301782528	173
12	269153	6.894432865662	174
12	271450	6.936843666557	175
12	272638	6.975430700615	176
12	274189	7.013643944074	177
12	275761	7.057212381663	178
12	277301	7.093528456862	179
12	278857	7.134375972305	180
12	280413	7.176721829529	181
12	281969	7.215871651071	182
12	283619	7.259942088776	183
12	284708	7.296913396613	184
12	286637	7.340671268412	185
12	288193	7.381750636454	186
12	289749	7.425475451926	187
12	291305	7.462382629911	188
12	292861	7.505926051304	189
12	294235	7.542021116112	190
12	295600	7.582274303367	191
12	297250	7.620101206773	192
12	298697	7.654948187651	193
12	300268	7.693455751206	194
12	301808	7.731877691184	195
12	303364	7.77172616253	196
12	304920	7.80835270943	197
12	306476	7.850271476013	198
12	308032	7.886786234057	199
12	309588	7.92801633249	200
12	311144	7.965825279506	201
12	312311	8.003605519618	202
12	313867	8.040227000827	203
12	315128	8.078033002456	204
12	316497	8.115165034962	205
12	317773	8.150703422774	206
12	319329	8.188255240528	207
12	320885	8.225114979154	208
12	322441	8.268800656045	209
12	323997	8.307561327574	210
12	325553	8.344849303638	211
12	327109	8.386949156031	212
12	328665	8.428350290354	213
12	330221	8.465023567307	214
12	331777	8.508324099931	215
12	333338	8.550529405404	216
12	334889	8.592339881638	217
12	336450	8.634391537132	218
12	338001	8.669493802061	219
12	339557	8.706901885802	220
12	341113	8.746003472777	221
12	342669	8.782453613864	222
12	344225	8.825706617575	223
12	345781	8.86104106975	224
12	347336	8.898345588883	225
12	348877	8.938631725678	226
12	350433	8.976564618451	227
12	351989	9.01824434236	228
12	353545	9.054027221335	229
12	354720	9.089757706082	230
12	356268	9.126054517929	231
12	358120	9.170322062318	232
12	359757	9.208050873525	233
12	360936	9.244694355276	234
12	362501	9.283677237747	235
12	364158	9.328495225417	236
12	365620	9.370091602369	237
12	367176	9.410249848119	238
12	369105	9.456043582439	239
12	370288	9.495733077887	240
12	372035	9.538089987744	241
12	373400	9.572431637418	242
12	374956	9.612520176807	243
12	376512	9.65354542759	244
12	378441	9.696173106561	245
12	379997	9.740017639869	246
12	381566	9.781152764803	247
12	383109	9.817570192479	248
12	384665	9.859519268518	249
12	386221	9.897476132621	250
12	387777	9.936257775262	251
12	388960	9.974582081758	252
13	0	0	0
14	0	0	0
15	3	0	1500
15	2444	0.043326198428	1500
15	3897	0.079615461411	1500
15	5453	0.119278569139	1500
15	7009	0.154835716068	1500
15	8565	0.192612901708	1500
15	10121	0.235173968622	1500
15	11677	0.274412519061	1500
15	13233	0.313088137778	1500
15	14789	0.353779145221	1500
15	16345	0.389322525081	1500
15	17901	0.43183096755	1500
15	19457	0.470608485923	1500
15	21013	0.511491657097	1500
15	22569	0.548566357884	1500
15	24125	0.5856150155	1500
15	25681	0.628466544603	1500
15	27237	0.664947953203	1500
15	28793	0.707836680943	1500
15	30349	0.750940921893	1500
15	31905	0.786509402622	1500
15	33461	0.826697754098	1500
15	35017	0.867135813634	1500
15	36573	0.911673027447	1500
15	38176	0.956262854661	1500
15	39685	0.991943595423	1500
15	41241	1.034775939807	1500
15	42797	1.073261133441	1500
15	44353	1.111505182054	1500
15	45909	1.153500932668	1500
15	47568	1.194423236848	1500
15	49017	1.230469515702	1500
15	50561	1.268296512171	1500
15	52117	1.310205449445	1500
15	53673	1.354400763816	1500
15	55233	1.398633824451	1500
15	57098	1.442743764361	1500
15	58501	1.487000785847	1500
15	60286	1.531377138069	1500
15	61872	1.573831118792	1500
15	63558	1.609989458825	1500
15	65343	1.651605531706	1500
15	66787	1.687638513257	1500
15	68066	1.725288910262	1500
15	69638	1.76557125118	1500
15	71559	1.80608204266	1500
15	73051	1.849108964037	1500
15	74673	1.887876376707	1500
15	75846	1.925884615953	1500
15	77791	1.970199666337	1500
15	79229	2.006323939554	1500
15	80903	2.047698562352	1500
15	82459	2.088449340504	1500
15	83642	2.126277709023	1500
15	85415	2.165608483541	1500
15	87111	2.206820176057	1500
15	88294	2.243573896761	1500
15	89850	2.281719629697	1500
15	91033	2.317716959156	1500
15	92589	2.35666929156	1500
15	94518	2.396891050231	1500
15	95701	2.432646715836	1500
15	97401	2.475358970465	1500
15	98813	2.512603106638	1500
15	100369	2.548942595548	1500
15	101910	2.584382759165	1500
15	103465	2.622489051351	1500
15	105021	2.657495693506	1500
15	106577	2.692924755448	1500
15	108133	2.735661859447	1500
15	109689	2.773733588946	1500
15	111245	2.814484206045	1500
15	112801	2.851078143146	1500
15	114373	2.894065035631	1500
15	115929	2.937552250913	1500
15	117485	2.980110926212	1500
15	119041	3.022843517538	1500
15	120581	3.05923485043	1500
15	122137	3.096537906304	1500
15	123693	3.137923998048	1500
15	125249	3.182753899167	1500
15	126805	3.226425044536	1500
15	128361	3.262960869639	1500
15	130239	3.304619583613	1500
15	131846	3.344311282108	1500
15	132656	3.380785283113	1500
15	134865	3.424518477376	1500
15	135752	3.460745925551	1500
15	137308	3.497068982363	1500
15	138864	3.535030260048	1500
15	140420	3.576183024334	1500
15	141992	3.614381363156	1500
15	143548	3.658946804178	1500
15	145159	3.697401946187	1500
15	146783	3.736869313701	1500
15	148216	3.776778977509	1500
15	150518	3.821762526308	1500
15	152090	3.864451720678	1500
15	153611	3.899915560471	1500
15	154848	3.940812678636	1500
15	156742	3.983593067104	1500
15	158314	4.028279947807	1500
15	159497	4.068900608931	1500
15	161780	4.109918634704	1500
15	163355	4.152203374366	1500
15	164943	4.195639957856	1500
15	166467	4.235455491455	1500
15	167798	4.271528501725	1500
15	169579	4.315399817175	1500
15	171147	4.35471824369	1500
15	172318	4.394367027668	1500
15	173874	4.42952441004	1500
15	175430	4.472705420539	1500
15	177359	4.51614869066	1500
15	178915	4.556547545711	1500
15	180471	4.596089198403	1500
15	182043	4.637811926708	1500
15	183603	4.680372663631	1500
15	185155	4.717721119974	1500
15	186711	4.760961020909	1500
15	188267	4.803104019387	1500
15	189839	4.846019394131	1500
15	191395	4.88822982821	1500
15	192951	4.923930715829	1500
15	194507	4.959183034086	1500
15	196049	4.995637535492	1500
15	197603	5.031469183191	1500
15	199167	5.07417179763	1500
15	200712	5.112861556172	1500
15	202255	5.149708941489	1500
15	203063	5.188254486288	1500
15	204605	5.224064468151	1500
15	206534	5.266942962605	1500
15	208115	5.311600217313	1500
15	209646	5.348009387778	1500
15	211202	5.384923643201	1500
15	212758	5.425730536211	1500
15	214263	5.463522860376	1500
15	215886	5.507819642241	1500
15	217817	5.552768661327	1500
15	219380	5.594929238451	1500
15	220939	5.636310084388	1500
15	222105	5.673267974723	1500
15	223650	5.710726467746	1500
15	225206	5.750720972798	1500
15	227136	5.793841717839	1500
15	228703	5.837321564727	1500
15	230281	5.876966468223	1500
15	231851	5.921008390485	1500
15	233391	5.956311274577	1500
15	234947	5.995938886857	1500
15	236499	6.032438300777	1500
15	237670	6.067702194104	1500
15	239599	6.108207380998	1500
15	241159	6.151214986074	1500
15	242727	6.191536616584	1500
15	244283	6.235555852904	1500
15	245840	6.278194471291	1500
15	247395	6.321381862097	1500
15	248963	6.361388632312	1500
15	250523	6.403576789409	1500
15	252079	6.444904445816	1500
15	253635	6.489011563262	1500
15	255191	6.530619548847	1500
15	256747	6.574467667787	1500
15	258303	6.616033718743	1500
15	260050	6.657125226924	1500
15	261399	6.695447600066	1500
15	262955	6.731988771738	1500
15	264511	6.771637993467	1500
15	266067	6.815682843754	1500
15	267623	6.853834750213	1500
15	269128	6.894364403438	1500
15	270362	6.930405322766	1500
15	271918	6.96807036915	1500
15	273474	7.005414198715	1500
15	275030	7.043501713219	1500
15	276586	7.086907285153	1500
15	278142	7.125337954477	1500
15	279698	7.16821036308	1500
15	281254	7.212325826103	1500
15	282810	7.256541301584	1500
15	284739	7.299136664636	1500
15	285922	7.334370766952	1500
15	287478	7.375665163937	1500
15	289034	7.416268900976	1500
15	290590	7.459433028142	1500
15	292146	7.498070055428	1500
15	293716	7.539842179697	1500
15	295631	7.582880172948	1500
15	296828	7.618271434076	1500
15	298743	7.661208946555	1500
15	300299	7.701489793653	1500
15	301871	7.745665188531	1500
15	303800	7.790298932729	1500
15	304983	7.827662652078	1500
15	306539	7.866109704921	1500
15	308095	7.908452666901	1500
15	309651	7.945682682068	1500
15	311207	7.982709107817	1500
15	312763	8.026782040013	1500
15	314319	8.069306954147	1500
15	316066	8.113370684019	1500
15	317804	8.154398899392	1500
15	319470	8.198631217765	1500
15	320932	8.237942525173	1500
15	322661	8.281168827593	1500
15	324221	8.316229432981	1500
15	325973	8.360717525586	1500
15	327529	8.39868484368	1500
15	329084	8.438406360698	1500
15	330641	8.47911789037	1500
15	331808	8.514222363973	1500
15	333321	8.550514940181	1500
15	334920	8.594705117793	1500
15	336344	8.633976185891	1500
15	338032	8.67478019856	1500
15	339592	8.715671434757	1500
15	341144	8.750916661299	1500
15	342700	8.788703381841	1500
15	344256	8.830677196484	1500
15	345812	8.866156225305	1500
15	347368	8.906716105082	1500
15	348924	8.942700633575	1500
15	350480	8.984986211076	1500
15	352029	9.023592561039	1500
15	353608	9.064392083448	1500
15	355164	9.10394758841	1500
15	356720	9.147186410548	1500
15	358276	9.189832532219	1500
15	359832	9.228119506665	1500
15	361388	9.269534515554	1500
15	362944	9.305021188668	1500
15	364500	9.346476351636	1500
15	366056	9.387579697676	1500
15	367596	9.423540527802	1500
15	369161	9.465575006593	1500
15	370703	9.505345749562	1500
15	372272	9.548161880542	1500
15	373829	9.586258827032	1500
15	375392	9.62936163646	1500
15	376939	9.665241244489	1500
15	378724	9.706933175807	1500
15	380433	9.750516342988	1500
15	381600	9.786682696484	1500
15	383533	9.826483230623	1500
15	385008	9.869867249839	1500
15	386657	9.910532432592	1500
15	388213	9.947690343224	1500
15	389753	9.985038827395	1500
16	4	0	1500
16	2341	0.042781567569	1500
16	4643	0.084487946306	1500
16	5826	0.123175197963	1500
16	8144	0.167971065268	1500
16	9700	0.210008438076	1500
16	11256	0.248140621397	1500
16	12796	0.283476872335	1500
16	14357	0.323560026838	1500
16	15924	0.368001262045	1500
16	17496	0.412343402063	1500
16	19042	0.447907585409	1500
16	20219	0.485199778639	1500
16	21767	0.522354855417	1500
16	23315	0.558530173992	1500
16	24896	0.603149537827	1500
16	26443	0.642701225999	1500
16	27999	0.679599705137	1500
16	29555	0.721855648818	1500
16	30722	0.759871635157	1500
16	32667	0.801685226492	1500
16	34223	0.838283897282	1500
16	35779	0.880446339	1500
16	37090	0.916296349696	1500
16	38609	0.958099051255	1500
16	40058	0.994253894184	1500
16	41432	1.035593203709	1500
16	43543	1.07964268713	1500
16	45099	1.117020105365	1500
16	46655	1.15898087705	1500
16	48211	1.201066965465	1500
16	49783	1.245514040251	1500
16	51339	1.285541135696	1500
16	52895	1.330261960746	1500
16	54467	1.374063029375	1500
16	56007	1.410667705806	1500
16	57561	1.452819784123	1500
16	59103	1.49214584769	1500
16	60675	1.534798553577	1500
16	61858	1.573796570483	1500
16	63414	1.609381919706	1500
16	64970	1.644601656064	1500
16	66526	1.686633830995	1500
16	68454	1.727006621284	1500
16	69732	1.765889817306	1500
16	71162	1.802894977408	1500
16	72748	1.847662995455	1500
16	74290	1.886024018139	1500
16	75940	1.926378700695	1500
16	77402	1.963623370064	1500
16	78958	2.005305709815	1500
16	80526	2.043727084922	1500
16	82086	2.0841862609	1500
16	83931	2.127634796733	1500
16	85185	2.164532332921	1500
16	86738	2.202785300978	1500
16	88674	2.246970765458	1500
16	90223	2.286820421976	1500
16	91779	2.323329770945	1500
16	93335	2.361518944153	1500
16	94895	2.405060092984	1500
16	96447	2.440156926161	1500
16	98003	2.479953997736	1500
16	99559	2.521939571838	1500
16	101115	2.557667112621	1500
16	102314	2.596118490352	1500
16	103870	2.636699002751	1500
16	105426	2.673557978731	1500
16	106982	2.716426579065	1500
16	108538	2.757161018459	1500
16	110094	2.79417197863	1500
16	111676	2.837089592851	1500
16	113206	2.875255094899	1500
16	114762	2.91613660946	1500
16	116318	2.959298116981	1500
16	117874	2.99978660962	1500
16	119430	3.034793525123	1500
16	120978	3.070149343141	1500
16	122542	3.112646357598	1500
16	124090	3.148625317616	1500
16	125529	3.184135848267	1500
16	126949	3.227090413502	1500
16	128734	3.265701478323	1500
16	129917	3.303414539324	1500
16	131473	3.341447458546	1500
16	133229	3.383715968814	1500
16	134196	3.419727043735	1500
16	136125	3.463220407082	1500
16	137681	3.49923895324	1500
16	139253	3.54332433638	1500
16	140809	3.581481045588	1500
16	142365	3.622327443532	1500
16	143921	3.661071583413	1500
16	145104	3.697219256992	1500
16	146660	3.736350118274	1500
16	148869	3.780104631482	1500
16	149963	3.81552917641	1500
16	151701	3.859070546533	1500
16	153257	3.898328721979	1500
16	154813	3.94066634858	1500
16	156369	3.981086522098	1500
16	157941	4.025542882745	1500
16	159786	4.070139839166	1500
16	161147	4.107354740916	1500
16	162850	4.143986557979	1500
16	164356	4.182525599099	1500
16	165857	4.226784069821	1500
16	167468	4.270129933654	1500
16	169206	4.309943007202	1500
16	170762	4.352537509766	1500
16	172538	4.395335737848	1500
16	174154	4.430619367167	1500
16	175615	4.473459953285	1500
16	176613	4.509074939705	1500
16	178169	4.551866478933	1500
16	179725	4.587986625919	1500
16	181281	4.62492856801	1500
16	182837	4.661052478878	1500
16	184393	4.703065047299	1500
16	185949	4.738989529079	1500
16	187489	4.775528957062	1500
16	189045	4.815989850788	1500
16	190601	4.860691159492	1500
16	192157	4.901055715826	1500
16	193340	4.938255115525	1500
16	194896	4.973607313618	1500
16	196452	5.013977302528	1500
16	198063	5.05885091635	1500
16	199564	5.094222727786	1500
16	201120	5.134972631065	1500
16	202676	5.178534476948	1500
16	204232	5.221082315899	1500
16	205788	5.26040124686	1500
16	207564	5.300040193657	1500
16	209273	5.34242850662	1500
16	210656	5.377726402036	1500
16	212012	5.417386619495	1500
16	213568	5.458530294595	1500
16	215124	5.493943758332	1500
[...]
45	192113	4.89703828713	0.001595403132
45	194058	4.941133687035	0.001352403132
45	195614	4.982115648924	0.001559403132
45	197170	5.017659338955	0.001469403132
45	198544	5.060818419914	0.002137477992
45	200282	5.102973574653	0.001244403132
45	202227	5.148647731942	0.00223644272
45	203784	5.19114668535	0.002931693614
45	205712	5.232889016473	0.001469403132
45	207260	5.271051089781	0.001433403132
45	208840	5.315916686239	0.001514403132
45	210396	5.35722854052	0.001523403132
45	211968	5.400515931301	0.001433403132
45	213524	5.440519884858	0.001460403132
45	215080	5.475814742218	0.001649403132
45	216620	5.514142669388	0.001442403132
45	217783	5.549941417957	0.001460403132
45	218954	5.58550710896	0.001487403132
45	220231	5.625287380185	0.00179444549
45	222066	5.669569761326	0.001451403132
45	223622	5.710098732464	0.001334403132
45	224805	5.74719163117	0.001649403132
45	227107	5.792294473959	0.001829811371
45	228290	5.829895727044	0.001514403132
45	230037	5.867310993736	0.002921624626
45	231402	5.906499368922	0.001424403132
45	232585	5.941803735171	0.001496403132
45	234141	5.979129121691	0.001343403132
45	235697	6.014723195386	0.001586403132
45	237253	6.056987234642	0.001397403132
45	238809	6.092364533012	0.001604403132
45	240365	6.132165209601	0.001397403132
45	241921	6.171872850293	0.001388403132
45	243477	6.213551699251	0.001370403132
45	245033	6.251063433951	0.001658403132
45	246589	6.29263514093	0.001397403132
45	248145	6.33644639539	0.001370403132
45	249701	6.375695768401	0.001559403132
45	251243	6.413789839515	0.001424403132
45	252805	6.455743966695	0.001523403132
45	254353	6.496678819871	0.001343403132
45	255909	6.533398165129	0.002071141859
45	257465	6.577622889902	0.001325403132
45	259021	6.618983295437	0.002603094899
45	260484	6.658973591457	0.002657562807
45	262133	6.702271145692	0.001568403132
45	263701	6.743359398171	0.001532403132
45	265245	6.779068360638	0.001451403132
45	266801	6.818731429647	0.003022553909
45	268341	6.85803766025	0.001298403132
45	269897	6.897906465652	0.002475596625
45	271080	6.933444946527	0.002000895811
45	273009	6.977118115123	0.00182274483
45	274581	7.019573174295	0.001568403132
45	276137	7.063731440578	0.001541403132
45	277693	7.101468661638	0.001532403132
45	279249	7.14033998022	0.001406403132
45	280804	7.179854771477	0.001541403132
45	282345	7.220727945467	0.001604403132
45	283901	7.261205181542	0.002130675939
45	285457	7.30543267792	0.001541403132
45	287035	7.349735083949	0.001442403132
45	288601	7.392222294019	0.001361403132
45	290157	7.435807422539	0.001496403132
45	291713	7.47387617681	0.001451403132
45	293253	7.513877912843	0.001523403132
45	294800	7.550444769022	0.001532403132
45	296349	7.588222988316	0.001451403132
45	297909	7.628696118864	0.001262403132
45	299477	7.6681827707	0.001379403132
45	301033	7.71001025416	0.001532403132
45	302589	7.752790419081	0.001397403132
45	303772	7.788873025205	0.001235403132
45	305701	7.830864237971	0.002172711084
45	307257	7.869284328682	0.002286887253
45	308813	7.912211080346	0.001415403132
45	310369	7.955389442643	0.001640403132
45	311941	7.997854778947	0.001478403132
45	313688	8.039468841844	0.002164553103
45	315410	8.079296095222	0.001968009315
45	316966	8.120004661422	0.001397403132
45	318522	8.15787602164	0.001415403132
45	319912	8.200431421944	0.002146507706
45	321650	8.243312755355	0.001532403132
45	323024	8.282680998499	0.002236547226
45	324580	8.317681871399	0.002155547226
45	325945	8.358316092344	0.001280403132
45	327485	8.394632045819	0.001325403132
45	329041	8.4352985644	0.001604403132
45	330610	8.474899097177	0.001460403132
45	332541	8.518359955797	0.001487403132
45	334487	8.562551543296	0.001415403132
45	336027	8.602642283886	0.001568403132
45	337194	8.639799424318	0.001406403132
45	338860	8.681426637784	0.00170444549
45	340322	8.72038325911	0.001496403132
45	341878	8.756214841175	0.001325403132
45	343434	8.798277518111	0.001424403132
45	344990	8.836478733898	0.001622403132
45	346562	8.879081159191	0.001388403132
45	348102	8.91671882396	0.001451403132
45	349674	8.956343831649	0.001433403132
45	351230	8.998543652019	0.001586403132
45	352786	9.041498897889	0.001496403132
45	354342	9.080535320762	0.001487403132
45	355898	9.120151552742	0.001397403132
45	357442	9.157618083242	0.001397403132
45	358994	9.199101326542	0.001469403132
45	360550	9.236367028589	0.001460403132
45	362106	9.274858906369	0.001595403132
45	363662	9.313280589003	0.001280403132
45	365218	9.354260264376	0.001469403132
45	366774	9.390727321437	0.002240710355
45	368330	9.433356066113	0.001532403132
45	369886	9.475392803301	0.001523403132
45	371450	9.516119397707	0.001622403132
45	372998	9.556173361187	0.001415403132
45	374559	9.59677061637	0.001604403132
45	376110	9.632608222353	0.002252113818
45	377666	9.669454043166	0.001478403132
45	378854	9.707465257824	0.001397403132
45	380397	9.749408178495	0.001604403132
45	382321	9.789830273178	0.002604380793
45	383501	9.825418038964	0.001568403132
45	385167	9.870542574784	0.001870168776
45	386629	9.909418545469	0.001397403132
45	388185	9.946984199315	0.001523403132
45	389721	9.984354266154	0.001748403132
46	2219	0.009017991337	0
46	3712	0.048591482745	1
46	4615	0.083842632319	2
46	6549	0.126223752748	3
46	7727	0.160993403249	4
46	9283	0.202303144635	5
46	11228	0.246965634727	6
46	12768	0.283048268327	7
46	14324	0.322758760044	8
46	15896	0.367531975165	9
46	17452	0.40415191673	10
46	19008	0.446556424696	11
46	20952	0.491414814156	12
46	22497	0.52959673813	13
46	24081	0.571560480747	14
46	25621	0.607064863673	15
46	27177	0.648729343028	16
46	28733	0.687529547903	17
46	30273	0.724922203603	18
46	31829	0.765948827658	19
46	33401	0.810074461957	20
46	34965	0.84908221877	21
46	36528	0.892001133518	22
46	38085	0.929803974175	23
46	39610	0.967773983042	24
46	41197	1.009170600588	25
46	42753	1.054183630947	26
46	44309	1.096292721974	27
46	45865	1.137659698927	28
46	47421	1.182184645653	29
46	48977	1.220609720331	30
46	50533	1.262035994177	31
46	52089	1.306142712585	32
46	53645	1.349243499071	33
46	55201	1.389644972617	34
46	56757	1.433858728527	35
46	58313	1.472309619102	36
46	59869	1.508448658624	37
46	61419	1.545802945291	38
46	62981	1.590033541116	39
46	64537	1.626215696782	40
46	66093	1.6664859268	41
46	67649	1.710786115079	42
46	69578	1.755040257486	43
46	71134	1.796689050578	44
46	72690	1.837713049573	45
46	74262	1.878303174243	46
46	75818	1.918195090475	47
46	77374	1.955714659859	48
46	78930	1.996662591951	49
46	80478	2.033996574012	50
46	82042	2.073545449953	51
46	83598	2.115199028425	52
46	85154	2.155732714261	53
46	86710	2.200743075516	54
46	88266	2.237857623459	55
46	89822	2.278648726939	56
46	91751	2.320863107711	57
46	93307	2.360043436323	58
46	94490	2.396052851968	59
46	96419	2.436259974213	60
46	97882	2.477429787456	61
46	99531	2.520015818633	62
46	101087	2.55749265012	63
46	103032	2.599714086261	64
46	104588	2.640017557672	65
46	106144	2.68253370364	66
46	107700	2.722784213097	67
46	109256	2.761627717408	68
46	110812	2.800186627045	69
46	112275	2.839583768757	70
46	114297	2.883502793552	71
46	115853	2.925741685558	72
46	117409	2.968569464211	73
46	118981	3.011411206028	74
46	120553	3.055204690098	75
46	122097	3.092250195655	76
46	123665	3.136881662416	77
46	125221	3.178443921544	78
46	126777	3.219959283249	79
46	128333	3.258993510674	80
46	129889	3.301983156767	81
46	131445	3.340732783017	82
46	133379	3.384285084196	83
46	134935	3.42474856379	84
46	136859	3.468924073287	85
46	138423	3.507815296452	86
46	139987	3.546675785405	87
46	141543	3.590039415119	88
46	143099	3.629907263256	89
46	144639	3.667414933754	90
46	146195	3.707200882498	91
46	147751	3.743461136939	92
46	149028	3.780846774922	93
46	150308	3.816935509835	94
46	151673	3.854331630501	95
46	153229	3.895222207225	96
46	154785	3.936169916558	97
46	156341	3.978383338737	98
46	157897	4.014415220275	99
46	159453	4.051228411301	100
46	161009	4.087228923396	101
46	162565	4.131477270188	102
46	164121	4.166707724671	103
46	165661	4.205414464858	104
46	167217	4.244769740167	105
46	168761	4.281390111675	106
46	170335	4.326057044961	107
46	171901	4.370886290369	108
46	173443	4.406195062965	109
46	175013	4.450493680487	110
46	176569	4.487396197881	111
46	178125	4.532297951111	112
46	179681	4.568203491052	113
46	181237	4.60897087558	114
46	182777	4.647083380438	115
46	184333	4.689704718544	116
46	185889	4.726314020205	117
46	187445	4.76744364773	118
46	189001	4.810033574056	119
46	190557	4.852808038361	120
46	192113	4.89703828713	121
46	194058	4.941133687035	122
46	195614	4.982115648924	123
46	197170	5.017659338955	124
46	198544	5.060818419914	125
46	200282	5.102973574653	126
46	202227	5.148647731942	127
46	203784	5.19114668535	128
46	205712	5.232889016473	129
46	207260	5.271051089781	130
46	208840	5.315916686239	131
46	210396	5.35722854052	132
46	211968	5.400515931301	133
46	213524	5.440519884858	134
46	215080	5.475814742218	135
46	216620	5.514142669388	136
46	217783	5.549941417957	137
46	218954	5.58550710896	138
46	220231	5.625287380185	139
46	222066	5.669569761326	140
46	223622	5.710098732464	141
46	224805	5.74719163117	142
46	227107	5.792294473959	143
46	228290	5.829895727044	144
46	230037	5.867310993736	145
46	231402	5.906499368922	146
46	232585	5.941803735171	147
46	234141	5.979129121691	148
46	235697	6.014723195386	149
46	237253	6.056987234642	150
46	238809	6.092364533012	151
46	240365	6.132165209601	152
46	241921	6.171872850293	153
46	243477	6.213551699251	154
46	245033	6.251063433951	155
46	246589	6.29263514093	156
46	248145	6.33644639539	157
46	249701	6.375695768401	158
46	251243	6.413789839515	159
46	252805	6.455743966695	160
46	254353	6.496678819871	161
46	255909	6.533398165129	162
46	257465	6.577622889902	163
46	259021	6.618983295437	164
46	260484	6.658973591457	165
46	262133	6.702271145692	166
46	263701	6.743359398171	167
46	265245	6.779068360638	168
46	266801	6.818731429647	169
46	268341	6.85803766025	170
46	269897	6.897906465652	171
46	271080	6.933444946527	172
46	273009	6.977118115123	173
46	274581	7.019573174295	174
46	276137	7.063731440578	175
46	277693	7.101468661638	176
46	279249	7.14033998022	177
46	280804	7.179854771477	178
46	282345	7.220727945467	179
46	283901	7.261205181542	180
46	285457	7.30543267792	181
46	287035	7.349735083949	182
46	288601	7.392222294019	183
46	290157	7.435807422539	184
46	291713	7.47387617681	185
46	293253	7.513877912843	186
46	294800	7.550444769022	187
46	296349	7.588222988316	188
46	297909	7.628696118864	189
46	299477	7.6681827707	190
46	301033	7.71001025416	191
46	302589	7.752790419081	192
46	303772	7.788873025205	193
46	305701	7.830864237971	194
46	307257	7.869284328682	195
46	308813	7.912211080346	196
46	310369	7.955389442643	197
46	311941	7.997854778947	198
46	313688	8.039468841844	199
46	315410	8.079296095222	200
46	316966	8.120004661422	201
46	318522	8.15787602164	202
46	319912	8.200431421944	203
46	321650	8.243312755355	204
46	323024	8.282680998499	205
46	324580	8.317681871399	206
46	325945	8.358316092344	207
46	327485	8.394632045819	208
46	329041	8.4352985644	209
46	330610	8.474899097177	210
46	332541	8.518359955797	211
46	334487	8.562551543296	212
46	336027	8.602642283886	213
46	337194	8.639799424318	214
46	338860	8.681426637784	215
46	340322	8.72038325911	216
46	341878	8.756214841175	217
46	343434	8.798277518111	218
46	344990	8.836478733898	219
46	346562	8.879081159191	220
46	348102	8.91671882396	221
46	349674	8.956343831649	222
46	351230	8.998543652019	223
46	352786	9.041498897889	224
46	354342	9.080535320762	225
46	355898	9.120151552742	226
46	357442	9.157618083242	227
46	358994	9.199101326542	228
46	360550	9.236367028589	229
46	362106	9.274858906369	230
46	363662	9.313280589003	231
46	365218	9.354260264376	232
46	366774	9.390727321437	233
46	368330	9.433356066113	234
46	369886	9.475392803301	235
46	371450	9.516119397707	236
46	372998	9.556173361187	237
46	374559	9.59677061637	238
46	376110	9.632608222353	239
46	377666	9.669454043166	240
46	378854	9.707465257824	241
46	380397	9.749408178495	242
46	382321	9.789830273178	243
46	383501	9.825418038964	244
46	385167	9.870542574784	245
46	386629	9.909418545469	246
46	388185	9.946984199315	247
46	389721	9.984354266154	248
47	154394	3.919753500408	-197360.41952913
47	159046	4.019753500408	240000
47	162957	4.119753500408	360000
47	166158	4.219753500408	240000
47	170732	4.319753500408	360000
47	173844	4.419753500408	240000
47	178885	4.519753500408	360000
47	181997	4.619753500408	240000
47	186681	4.719753500408	360000
47	189793	4.819753500408	240000
47	194429	4.919753500408	360000
47	197573	5.019753500408	240000
47	202132	5.119753500408	360000
47	205321	5.219753500408	240000
47	209243	5.319753500408	360000
47	212728	5.419753500408	240000
47	217396	5.519753500408	360000
47	220881	5.619753500408	240000
47	225922	5.719753500408	360000
47	228661	5.819753500408	240000
47	233336	5.919753500408	360000
47	236457	6.019753500408	240000
47	240752	6.119753500408	360000
47	243864	6.219753500408	240000
47	248532	6.319753500408	360000
47	251924	6.419753500408	240000
47	256685	6.519753500408	360000
47	259797	6.619753500408	240000
47	262925	6.719753500408	240000
47	267593	6.819753500408	360000
47	271451	6.919753500408	240000
47	275762	7.019753500408	360000
47	278858	7.119753500408	240000
47	283620	7.219753500408	360000
47	286638	7.319753500408	240000
47	289750	7.419753500408	240000
47	294236	7.519753500408	360000
47	297251	7.619753500408	240000
47	301809	7.719753500408	360000
47	306477	7.819753500408	360000
47	309589	7.919753500408	240000
47	313868	8.019753500408	360000
47	317774	8.119753500408	360000
47	320886	8.219753500408	240000
47	325554	8.319753500408	360000
47	328666	8.419753500408	240000
47	333339	8.519753500408	360000
47	336451	8.619753500408	240000
47	341114	8.719753500408	360000
47	344226	8.819753500408	240000
47	348878	8.919753500408	360000
47	353546	9.019753500408	360000
47	356269	9.119753500408	240000
47	360937	9.219753500408	360000
47	364159	9.319753500408	240000
47	369106	9.419753500408	360000
47	372036	9.519753500408	240000
47	376513	9.619753500408	360000
47	379998	9.719753500408	240000
47	384666	9.819753500408	360000
47	387778	9.919753500408	240000
47	390174	10	299078.46600193
48	155246	3.942460577458	-198100.2377854
48	160214	4.042460577458	240000
48	163321	4.142460577458	240000
48	168083	4.242460577458	360000
48	171106	4.342460577458	240000
48	176142	4.442460577458	360000
48	178602	4.542460577458	240000
48	183176	4.642460577458	360000
48	187838	4.742460577458	360000
48	190948	4.842460577458	240000
48	195235	4.942460577458	360000
48	198720	5.042460577458	240000
48	203015	5.142460577458	360000
48	206127	5.242460577458	240000
48	209612	5.342460577458	240000
48	213907	5.442460577458	360000
48	218575	5.542460577458	360000
48	221687	5.642460577458	240000
48	225172	5.742460577458	240000
48	229472	5.842460577458	360000
48	232952	5.942460577458	240000
48	237620	6.042460577458	360000
48	241121	6.142460577458	240000
48	245793	6.242460577458	360000
48	248901	6.342460577458	240000
48	253569	6.442460577458	360000
48	256308	6.542460577458	240000
48	260976	6.642460577458	360000
48	264083	6.742460577458	240000
48	268756	6.842460577458	360000
48	271868	6.942460577458	240000
48	276524	7.042460577458	360000
48	279632	7.142460577458	240000
48	284316	7.242460577458	360000
48	287412	7.342460577458	240000
48	292096	7.442460577458	360000
48	295208	7.542460577458	240000
48	298320	7.642460577458	240000
48	302988	7.742460577458	360000
48	306100	7.842460577458	240000
48	310752	7.942460577458	360000
48	314245	8.042460577458	240000
48	318937	8.142460577458	360000
48	322041	8.242460577458	240000
48	326692	8.342460577458	360000
48	329829	8.442460577458	240000
48	334087	8.542460577458	360000
48	339133	8.642460577458	360000
48	342245	8.742460577458	240000
48	345389	8.842460577458	240000
48	350057	8.942460577458	360000
48	353161	9.042460577458	240000
48	358210	9.142460577458	360000
48	361322	9.242460577458	240000
48	365990	9.342460577458	360000
48	368920	9.442460577458	240000
48	373770	9.542460577458	360000
48	376882	9.642460577458	240000
48	381177	9.742460577458	360000
48	384289	9.842460577458	240000
48	389330	9.942460577458	360000
48	390174	10	208552.66649993
49	155527	3.94369671037	-198140.67139846
49	159843	4.04369671037	240000
49	163703	4.14369671037	240000
49	168364	4.24369671037	360000
49	171492	4.34369671037	240000
49	176051	4.44369671037	360000
49	179256	4.54369671037	240000
49	183956	4.64369671037	360000
49	187052	4.74369671037	240000
49	190180	4.84369671037	240000
49	194848	4.94369671037	360000
49	199516	5.04369671037	360000
49	202596	5.14369671037	240000
49	206875	5.24369671037	360000
49	209987	5.34369671037	240000
49	214655	5.44369671037	360000
49	218169	5.54369671037	240000
49	222642	5.64369671037	360000
49	225827	5.74369671037	240000
49	230636	5.84369671037	360000
49	233732	5.94369671037	240000
49	238105	6.04369671037	360000
49	241512	6.14369671037	240000
49	246196	6.24369671037	360000
49	249308	6.34369671037	240000
49	252420	6.44369671037	240000
49	257088	6.54369671037	360000
49	260573	6.64369671037	240000
49	264852	6.74369671037	360000
49	267964	6.84369671037	240000
49	272259	6.94369671037	360000
49	275371	7.04369671037	240000
49	280039	7.14369671037	360000
49	283342	7.24369671037	240000
49	287819	7.34369671037	360000
49	291122	7.44369671037	240000
49	295972	7.54369671037	360000
49	299084	7.64369671037	240000
49	302212	7.74369671037	240000
49	306885	7.84369671037	360000
49	309992	7.94369671037	240000
49	314660	8.04369671037	360000
49	318145	8.14369671037	240000
49	323202	8.24369671037	360000
49	326314	8.34369671037	240000
49	330982	8.44369671037	360000
49	333705	8.54369671037	240000
49	338373	8.64369671037	360000
49	341485	8.74369671037	240000
49	346153	8.84369671037	360000
49	349265	8.94369671037	240000
49	353949	9.04369671037	360000
49	357061	9.14369671037	240000
49	361729	9.24369671037	360000
49	364841	9.34369671037	240000
49	369509	9.44369671037	360000
49	372621	9.54369671037	240000
49	377289	9.64369671037	360000
49	380774	9.74369671037	240000
49	385442	9.84369671037	360000
49	388554	9.94369671037	240000
49	390174	10	426262.83753076
50	157897	4.014415220275	-200481.66455929
50	162565	4.114415220275	240000
50	167217	4.214415220275	360000
50	170335	4.314415220275	240000
50	175013	4.414415220275	360000
50	178125	4.514415220275	240000
50	182777	4.614415220275	360000
50	185889	4.714415220275	240000
50	190557	4.814415220275	360000
50	194058	4.914415220275	240000
50	197170	5.014415220275	240000
50	202227	5.114415220275	360000
50	205712	5.214415220275	240000
50	208840	5.314415220275	240000
50	213524	5.414415220275	360000
50	217783	5.514415220275	360000
50	220231	5.614415220275	240000
50	224805	5.714415220275	360000
50	228290	5.814415220275	240000
50	232585	5.914415220275	360000
50	235697	6.014415220275	240000
50	240365	6.114415220275	360000
50	245033	6.214415220275	360000
50	248145	6.314415220275	240000
50	252805	6.414415220275	360000
50	255909	6.514415220275	240000
50	259021	6.614415220275	240000
50	263701	6.714415220275	360000
50	266801	6.814415220275	240000
50	271080	6.914415220275	360000
50	274581	7.014415220275	240000
50	279249	7.114415220275	360000
50	282345	7.214415220275	240000
50	287035	7.314415220275	360000
50	290157	7.414415220275	240000
50	294800	7.514415220275	360000
50	297909	7.614415220275	240000
50	302589	7.714415220275	360000
50	305701	7.814415220275	240000
50	310369	7.914415220275	360000
50	313688	8.014415220275	240000
50	316966	8.114415220275	240000
50	321650	8.214415220275	360000
50	324580	8.314415220275	240000
50	329041	8.414415220275	360000
50	332541	8.514415220275	240000
50	337194	8.614415220275	360000
50	340322	8.714415220275	240000
50	344990	8.814415220275	360000
50	348102	8.914415220275	240000
50	352786	9.014415220275	360000
50	355898	9.114415220275	240000
50	360550	9.214415220275	360000
50	365218	9.314415220275	360000
50	368330	9.414415220275	240000
50	371450	9.514415220275	240000
50	376110	9.614415220275	360000
50	380397	9.714415220275	360000
50	383501	9.814415220275	240000
50	388185	9.914415220275	360000
50	390174	10	280423.69305753

